3pbq_imipenem_iter1_filtered_21
     RDKit          3D

 22 25  0  0  0  0  0  0  0  0999 V2000
   -4.3920   -2.9240  -16.0240 N   0  0  0  0  0  0  0  0  0  0  0  0
   -6.8210   -1.1510  -18.9640 C   0  0  0  0  0  0  0  0  0  0  0  0
   -0.4200    0.4980  -19.6740 C   0  0  0  0  0  0  0  0  0  0  0  0
   -9.3990   -4.2290  -15.2450 O   0  0  0  0  0  0  0  0  0  0  0  0
   -8.8800   -1.5750  -17.6430 O   0  0  0  0  0  0  0  0  0  0  0  0
   -9.5600   -2.7160  -17.0690 C   0  0  0  0  0  0  0  0  0  0  0  0
   -0.9530   -0.5770  -20.5240 C   0  0  0  0  0  0  0  0  0  0  0  0
   -5.1540   -2.2250  -16.9050 C   0  0  0  0  0  0  0  0  0  0  0  0
   -3.2570   -1.0120  -17.8400 C   0  0  0  0  0  0  0  0  0  0  0  0
   -1.7700   -0.7650  -16.2300 F   0  0  0  0  0  0  0  0  0  0  0  0
   -8.7960   -3.4410  -16.0420 C   0  0  0  0  0  0  0  0  0  0  0  0
   -3.1010   -2.5860  -15.9930 C   0  0  0  0  0  0  0  0  0  0  0  0
   -7.3430   -3.3470  -15.9390 C   0  0  0  0  0  0  0  0  0  0  0  0
   -2.6540   -1.4220  -16.6890 C   0  0  0  0  0  0  0  0  0  0  0  0
   -2.4680   -0.6860  -20.2240 C   0  0  0  0  0  0  0  0  0  0  0  0
   -4.5720   -1.3670  -17.9760 C   0  0  0  0  0  0  0  0  0  0  0  0
   -2.5450   -0.2790  -18.8240 N   0  0  0  0  0  0  0  0  0  0  0  0
   -6.6390   -2.3610  -16.8780 C   0  0  0  0  0  0  0  0  0  0  0  0
   -5.4540   -1.0490  -19.0070 C   0  0  0  0  0  0  0  0  0  0  0  0
   -7.4200   -1.7380  -17.8330 C   0  0  0  0  0  0  0  0  0  0  0  0
   -1.4730    0.7360  -18.4820 C   0  0  0  0  0  0  0  0  0  0  0  0
   -2.1780   -3.4470  -15.2660 C   0  0  0  0  0  0  0  0  0  0  0  0
  1 12  2  0
  2 20  2  0
  3 21  1  0
  5  6  1  0
  6 11  1  0
  7 15  1  0
  7  3  1  0
  8 18  2  0
  8  1  1  0
  9 14  2  0
 11 13  1  0
 11  4  2  0
 12 22  1  0
 14 10  1  0
 14 12  1  0
 15 17  1  0
 16  9  1  0
 16  8  1  0
 17 21  1  0
 17  9  1  0
 18 13  1  0
 19  2  1  0
 19 16  2  0
 20  5  1  0
 20 18  1  0
M  END
>  <rank>  (1) 
13

>  <composite_score>  (1) 
0.5976

>  <smiles>  (1) 
Cc1nc2c3c(ccc2c(N2CCCC2)c1F)OCC(=O)C3

$$$$
