3pbq_imipenem_iter1_filtered_3
     RDKit          3D

 20 22  0  0  0  0  0  0  0  0999 V2000
   -8.5270   -3.3070  -16.8500 O   0  0  0  0  0  0  0  0  0  0  0  0
   -3.3120   -1.0020  -19.0270 O   0  0  0  0  0  0  0  0  0  0  0  0
   -4.5630   -1.3740  -18.7150 C   0  0  0  0  0  0  0  0  0  0  0  0
   -7.9410   -4.2880  -14.9260 O   0  0  0  0  0  0  0  0  0  0  0  0
   -2.4090   -2.2920  -17.2410 C   0  0  0  0  0  0  0  0  0  0  0  0
   -2.2440   -1.6340  -18.3610 C   0  0  0  0  0  0  0  0  0  0  0  0
   -6.1450   -2.2730  -17.2420 C   0  0  0  0  0  0  0  0  0  0  0  0
   -3.7860   -2.5710  -16.6640 C   0  0  0  0  0  0  0  0  0  0  0  0
   -0.1380   -2.3420  -17.0100 C   0  0  0  0  0  0  0  0  0  0  0  0
   -7.6930   -3.5720  -15.8350 C   0  0  0  0  0  0  0  0  0  0  0  0
   -1.0040   -1.3290  -18.8750 C   0  0  0  0  0  0  0  0  0  0  0  0
   -6.7550   -1.1530  -19.3230 C   0  0  0  0  0  0  0  0  0  0  0  0
   -7.1530   -1.9280  -18.1250 C   0  0  0  0  0  0  0  0  0  0  0  0
   -0.0150   -2.1860  -18.3420 C   0  0  0  0  0  0  0  0  0  0  0  0
   -5.4280   -0.9140  -19.5270 N   0  0  0  0  0  0  0  0  0  0  0  0
   -7.6870   -0.6640  -20.1470 O   0  0  0  0  0  0  0  0  0  0  0  0
   -4.7880   -2.0590  -17.5460 C   0  0  0  0  0  0  0  0  0  0  0  0
   -1.3270   -2.6620  -16.5580 C   0  0  0  0  0  0  0  0  0  0  0  0
   -6.3930   -2.9520  -15.9660 C   0  0  0  0  0  0  0  0  0  0  0  0
   -9.6650   -4.0260  -17.0790 C   0  0  0  0  0  0  0  0  0  0  0  0
  1 10  1  0
  2  3  1  0
  2  6  1  0
  3 17  1  0
  5  8  1  0
  5 18  1  0
  6  5  2  0
  7 19  1  0
  9 18  1  0
 10  4  2  0
 11  6  1  0
 11 14  1  0
 12 13  1  0
 13  7  1  0
 14  9  1  0
 15 12  1  0
 15  3  2  0
 16 12  2  0
 17  7  2  0
 17  8  1  0
 19 10  1  0
 20  1  1  0
M  END
>  <rank>  (1) 
32

>  <composite_score>  (1) 
0.5299

>  <smiles>  (1) 
COC(=O)CC1=C2CC3=C(CCCC3)OC2=NC(=O)C1

$$$$
