3pbq_imipenem_iter1_filtered_46
     RDKit          3D

 20 22  0  0  0  0  0  0  0  0999 V2000
   -5.1700   -2.1460  -16.7010 C   0  0  0  0  0  0  0  0  0  0  0  0
   -9.2000   -2.5190  -17.4030 N   0  0  0  0  0  0  0  0  0  0  0  0
   -7.2310   -1.2780  -17.9200 C   0  0  0  0  0  0  0  0  0  0  0  0
   -9.1350   -4.3830  -16.0900 O   0  0  0  0  0  0  0  0  0  0  0  0
   -5.0980   -2.9680  -15.5850 C   0  0  0  0  0  0  0  0  0  0  0  0
   -0.7560   -1.6080  -16.8210 N   0  0  0  0  0  0  0  0  0  0  0  0
   -2.9830   -1.1290  -19.5150 C   0  0  0  0  0  0  0  0  0  0  0  0
   -8.5910   -3.3120  -16.5930 C   0  0  0  0  0  0  0  0  0  0  0  0
   -2.8500   -1.6390  -16.7650 C   0  0  0  0  0  0  0  0  0  0  0  0
   -1.7210   -1.3890  -18.8490 C   0  0  0  0  0  0  0  0  0  0  0  0
   -0.5110   -1.9180  -19.4030 F   0  0  0  0  0  0  0  0  0  0  0  0
   -4.1500   -1.2010  -18.6920 C   0  0  0  0  0  0  0  0  0  0  0  0
   -6.2840   -3.4580  -15.3250 N   0  0  0  0  0  0  0  0  0  0  0  0
   -4.0440   -1.6300  -17.4230 C   0  0  0  0  0  0  0  0  0  0  0  0
   -0.3590   -2.7890  -16.6640 O   0  0  0  0  0  0  0  0  0  0  0  0
   -6.5290   -2.1120  -17.0560 C   0  0  0  0  0  0  0  0  0  0  0  0
   -8.6060   -1.4630  -18.0190 C   0  0  0  0  0  0  0  0  0  0  0  0
   -7.1610   -3.0290  -16.3100 C   0  0  0  0  0  0  0  0  0  0  0  0
   -0.4520   -0.8050  -15.8370 O   0  0  0  0  0  0  0  0  0  0  0  0
   -1.7700   -1.4480  -17.4600 C   0  0  0  0  0  0  0  0  0  0  0  0
  1  5  1  0
  2  8  1  0
  3 16  1  0
  5 13  1  0
  6 15  1  0
  6 19  2  0
  7 10  2  0
  7 12  1  0
  8 18  1  0
  8  4  2  0
 10 20  1  0
 11 10  1  0
 12 14  2  0
 14  9  1  0
 14  1  1  0
 16  1  2  0
 16 18  1  0
 17  3  1  0
 17  2  2  0
 18 13  2  0
 20  6  1  0
 20  9  2  0
M  CHG  2   6   1  15  -1
M  END
>  <rank>  (1) 
17

>  <composite_score>  (1) 
0.5818

>  <smiles>  (1) 
O=C1N=CCC2=C(c3ccc(F)c([N+](=O)[O-])c3)CN=C12

$$$$
