3pbq_imipenem_iter1_filtered_337
     RDKit          3D

 21 22  0  0  0  0  0  0  0  0999 V2000
   -2.4980   -2.5650  -16.7440 C   0  0  0  0  0  0  0  0  0  0  0  0
   -0.2070   -0.5540  -20.9790 C   0  0  0  0  0  0  0  0  0  0  0  0
   -8.9400   -2.6440  -17.2070 C   0  0  2  0  0  0  0  0  0  0  0  0
   -1.4080   -3.0760  -16.2090 N   0  0  0  0  0  0  0  0  0  0  0  0
   -6.5050   -3.6630  -15.1650 O   0  0  0  0  0  0  0  0  0  0  0  0
   -6.9820   -1.5070  -17.8650 C   0  0  0  0  0  0  0  0  0  0  0  0
  -11.1000   -1.9080  -17.5920 C   0  0  0  0  0  0  0  0  0  0  0  0
   -6.2160   -2.2430  -16.9840 C   0  0  0  0  0  0  0  0  0  0  0  0
   -0.5000    0.3390  -19.8480 C   0  0  0  0  0  0  0  0  0  0  0  0
   -1.7550   -0.2880  -19.2710 O   0  0  0  0  0  0  0  0  0  0  0  0
   -1.0680    0.1930  -17.1660 O   0  0  0  0  0  0  0  0  0  0  0  0
   -3.9580   -3.3910  -16.3590 S   0  0  0  0  0  0  0  0  0  0  0  0
   -8.2770   -1.7130  -17.9480 C   0  0  0  0  0  0  0  0  0  0  0  0
   -1.7750   -0.4560  -18.0160 C   0  0  0  0  0  0  0  0  0  0  0  0
   -8.2780   -3.1140  -16.1490 N   0  0  0  0  0  0  0  0  0  0  0  0
  -10.2130   -3.1510  -17.6040 C   0  0  0  0  0  0  0  0  0  0  0  0
   -4.6160   -0.2320  -18.4440 F   0  0  0  0  0  0  0  0  0  0  0  0
   -2.7370   -1.4450  -17.4740 C   0  0  0  0  0  0  0  0  0  0  0  0
   -4.1030   -1.2670  -17.6570 C   0  0  0  0  0  0  0  0  0  0  0  0
   -4.8010   -2.2090  -17.0260 C   0  0  0  0  0  0  0  0  0  0  0  0
   -6.9700   -3.0580  -16.0510 C   0  0  0  0  0  0  0  0  0  0  0  0
  1 12  1  0
  1  4  1  0
  2  9  1  0
  3 16  1  6
  3 15  1  0
  6  8  1  0
  8 20  1  0
  8 21  1  0
  9 10  1  0
 10 14  1  0
 13  6  2  0
 13  3  1  0
 14 18  1  0
 14 11  2  0
 15 21  1  0
 16  7  1  0
 17 19  1  0
 18  1  2  0
 19 18  1  0
 19 20  2  0
 20 12  1  0
 21  5  2  0
M  END
>  <rank>  (1) 
36

>  <composite_score>  (1) 
0.5216

>  <smiles>  (1) 
CCOC(=O)c1c(N)sc(C2C=CC(CC)NC2=O)c1F

$$$$
