3pbq_imipenem_iter1_filtered_112
     RDKit          3D

 21 23  0  0  0  0  0  0  0  0999 V2000
   -2.7420   -1.1100  -19.8830 C   0  0  0  0  0  0  0  0  0  0  0  0
   -3.5330   -0.5990  -20.6180 C   0  0  0  0  0  0  0  0  0  0  0  0
   -1.8040   -1.7010  -18.9240 C   0  0  2  0  0  0  0  0  0  0  0  0
   -4.8240   -2.2300  -17.7780 C   0  0  0  0  0  0  0  0  0  0  0  0
   -2.0940   -3.3950  -16.6190 C   0  0  0  0  0  0  0  0  0  0  0  0
   -8.1720   -3.3030  -15.5270 O   0  0  0  0  0  0  0  0  0  0  0  0
   -3.4430   -2.9090  -15.8480 C   0  0  2  0  0  0  0  0  0  0  0  0
   -7.0790   -2.8080  -16.2520 C   0  0  0  0  0  0  0  0  0  0  0  0
   -7.2260   -1.9280  -17.3840 C   0  0  0  0  0  0  0  0  0  0  0  0
   -0.0530   -0.3840  -17.4830 O   0  0  0  0  0  0  0  0  0  0  0  0
   -6.1640   -1.2610  -19.1240 F   0  0  0  0  0  0  0  0  0  0  0  0
   -1.2350    0.7340  -18.7930 C   0  0  0  0  0  0  0  0  0  0  0  0
   -4.7400   -2.8550  -16.5940 C   0  0  1  0  0  0  0  0  0  0  0  0
   -1.8090   -1.6310  -17.6390 C   0  0  1  0  0  0  0  0  0  0  0  0
   -7.7760   -4.5570  -15.0440 O   0  0  0  0  0  0  0  0  0  0  0  0
   -8.4960   -1.3230  -17.7250 C   0  0  0  0  0  0  0  0  0  0  0  0
   -1.3420   -0.4820  -18.2030 C   0  0  1  0  0  0  0  0  0  0  0  0
   -2.4100   -2.0240  -16.4770 C   0  0  2  0  0  0  0  0  0  0  0  0
   -6.0300   -1.8040  -18.0620 C   0  0  0  0  0  0  0  0  0  0  0  0
   -1.3050    1.9480  -17.5290 S   0  0  0  0  0  0  0  0  0  0  0  0
   -5.8120   -3.2070  -15.8140 N   0  0  0  0  0  0  0  0  0  0  0  0
  2  1  3  0
  3  1  1  6
  3 17  1  0
  3 14  1  0
  6 15  1  0
  7  5  1  6
  8 21  2  0
  8  6  1  0
  9 16  1  0
  9  8  1  0
 11 19  1  0
 12 17  1  0
 12 20  1  0
 13  4  1  1
 13  7  1  0
 13 21  1  0
 14 18  1  6
 17 14  1  0
 17 10  1  1
 18  5  1  1
 18  7  1  0
 19  4  2  0
 19  9  1  0
M  END
>  <rank>  (1) 
11

>  <composite_score>  (1) 
0.6049

>  <smiles>  (1) 
C#CC1C(C2CC2C2C=C(F)C(C)C(OO)=N2)C1(O)CS

$$$$
