3pbq_imipenem_iter1_filtered_273
     RDKit          3D

 22 25  0  0  0  0  0  0  0  0999 V2000
   -7.8180   -3.7500  -15.2180 O   0  0  0  0  0  0  0  0  0  0  0  0
    0.3680   -1.4280  -21.3020 F   0  0  0  0  0  0  0  0  0  0  0  0
   -3.6370   -2.8940  -15.4340 C   0  0  0  0  0  0  0  0  0  0  0  0
   -5.8140   -2.0410  -17.7030 C   0  0  0  0  0  0  0  0  0  0  0  0
   -9.8080   -2.7210  -16.8410 O   0  0  0  0  0  0  0  0  0  0  0  0
   -8.1330   -1.7980  -18.3140 C   0  0  0  0  0  0  0  0  0  0  0  0
   -5.0610   -2.8850  -15.4390 C   0  0  0  0  0  0  0  0  0  0  0  0
   -7.4380   -2.9530  -16.2000 C   0  0  0  0  0  0  0  0  0  0  0  0
   -3.0670   -3.4330  -14.4480 O   0  0  0  0  0  0  0  0  0  0  0  0
   -8.5080   -2.4600  -17.0790 C   0  0  0  0  0  0  0  0  0  0  0  0
   -1.4140   -2.1390  -18.2030 C   0  0  0  0  0  0  0  0  0  0  0  0
   -6.8590   -1.7990  -18.6160 C   0  0  0  0  0  0  0  0  0  0  0  0
   -3.4590   -1.5130  -17.4210 C   0  0  1  0  0  0  0  0  0  0  0  0
   -4.6340   -1.6120  -18.1700 N   0  0  0  0  0  0  0  0  0  0  0  0
   -2.9400   -2.5270  -16.5060 N   0  0  0  0  0  0  0  0  0  0  0  0
   -0.5500   -2.3800  -19.1650 C   0  0  0  0  0  0  0  0  0  0  0  0
   -2.4590   -0.3380  -19.2510 C   0  0  0  0  0  0  0  0  0  0  0  0
   -2.4630   -1.3320  -18.3480 C   0  0  0  0  0  0  0  0  0  0  0  0
   -1.4890   -2.9320  -16.8940 C   0  0  0  0  0  0  0  0  0  0  0  0
   -1.3750   -0.2560  -20.1030 C   0  0  0  0  0  0  0  0  0  0  0  0
   -6.0190   -2.6260  -16.4450 C   0  0  0  0  0  0  0  0  0  0  0  0
   -0.4820   -1.3310  -20.1910 C   0  0  0  0  0  0  0  0  0  0  0  0
  2 22  1  0
  3  9  2  0
  4 21  2  0
  6 10  1  0
  7  3  1  0
  8  1  1  0
 10  5  1  0
 10  8  2  0
 11 19  2  0
 12  6  2  0
 12  4  1  0
 13 18  1  0
 13 15  1  0
 14  4  1  0
 13 14  1  6
 15  3  1  0
 16 11  1  0
 17 18  2  0
 18 11  1  0
 19 15  1  0
 20 17  1  0
 21  8  1  0
 21  7  1  0
 22 20  2  0
 22 16  1  0
M  END
>  <rank>  (1) 
34

>  <composite_score>  (1) 
0.5234

>  <smiles>  (1) 
O=C1Cc2c(ccc(O)c2O)NC2C3=CC=C(F)CC3=CN12

$$$$
