3pbq_imipenem_iter1_filtered_114
     RDKit          3D

 21 24  0  0  0  0  0  0  0  0999 V2000
   -1.3620   -0.6020  -18.6960 C   0  0  0  0  0  0  0  0  0  0  0  0
   -8.9170   -2.8720  -16.8200 N   0  0  0  0  0  0  0  0  0  0  0  0
   -6.6240   -1.3010  -19.0310 N   0  0  0  0  0  0  0  0  0  0  0  0
   -2.7110   -2.7990  -15.9500 C   0  0  2  0  0  0  0  0  0  0  0  0
    0.3900   -0.4370  -16.9830 C   0  0  0  0  0  0  0  0  0  0  0  0
   -4.5480   -1.8150  -17.7150 C   0  0  2  0  0  0  0  0  0  0  0  0
   -8.2420   -0.4820  -18.1150 O   0  0  0  0  0  0  0  0  0  0  0  0
    0.0730   -0.6380  -18.3590 C   0  0  0  0  0  0  0  0  0  0  0  0
   -3.1080   -1.6930  -17.8080 C   0  0  2  0  0  0  0  0  0  0  0  0
   -9.0800   -4.1280  -16.2960 C   0  0  0  0  0  0  0  0  0  0  0  0
   -1.0550   -0.6060  -16.4430 C   0  0  1  0  0  0  0  0  0  0  0  0
  -10.0560   -2.5520  -17.5380 C   0  0  0  0  0  0  0  0  0  0  0  0
   -2.5640   -2.3860  -17.4450 C   0  0  0  0  0  0  0  0  0  0  0  0
   -6.4000   -2.8130  -16.2770 C   0  0  0  0  0  0  0  0  0  0  0  0
   -4.1640   -2.6980  -15.5620 O   0  0  0  0  0  0  0  0  0  0  0  0
   -1.9460   -0.3560  -17.4800 C   0  0  1  0  0  0  0  0  0  0  0  0
   -5.1370   -2.6440  -16.4630 C   0  0  0  0  0  0  0  0  0  0  0  0
   -7.5110   -1.4080  -18.0710 C   0  0  0  0  0  0  0  0  0  0  0  0
   -5.3710   -1.5470  -18.8660 C   0  0  0  0  0  0  0  0  0  0  0  0
   -7.6520   -2.3850  -17.1850 C   0  0  2  0  0  0  0  0  0  0  0  0
   -1.2420   -2.0780  -16.0030 C   0  0  0  0  0  0  0  0  0  0  0  0
  1  8  1  0
  2 10  1  0
  3 19  2  0
  3 18  1  0
  4 13  1  0
  4 15  1  0
  6 19  1  6
  6 17  1  0
  7 18  2  0
  8  5  1  0
  9  6  1  0
  9 16  1  0
  9 13  1  1
 11  5  1  6
 11 21  1  0
 12  2  1  0
 16  1  1  6
 16 11  1  0
 17 14  2  0
 17 15  1  0
 18 20  1  0
 20  2  1  1
 20 14  1  0
  4 21  1  1
M  END
>  <rank>  (1) 
49

>  <composite_score>  (1) 
0.4912

>  <smiles>  (1) 
CN(C)C1C=C2OC3CC4CCCC4C(C3)C2C=NC1=O

$$$$
