3pbq_imipenem_iter1_filtered_270
     RDKit          3D

 22 24  0  0  0  0  0  0  0  0999 V2000
   -2.7470   -0.4600  -19.5460 C   0  0  0  0  0  0  0  0  0  0  0  0
   -4.6460   -1.0730  -18.4500 C   0  0  1  0  0  0  0  0  0  0  0  0
   -3.9010   -0.9820  -17.3040 C   0  0  2  0  0  0  0  0  0  0  0  0
   -6.9310   -1.2200  -19.4430 N   0  0  0  0  0  0  0  0  0  0  0  0
   -8.8690   -1.7030  -17.0400 C   0  0  0  0  0  0  0  0  0  0  0  0
   -6.5170   -1.7550  -17.5830 C   0  0  0  0  0  0  0  0  0  0  0  0
   -8.1550   -1.3850  -18.9380 N   0  0  0  0  0  0  0  0  0  0  0  0
   -2.6180   -0.9210  -18.0160 C   0  0  1  0  0  0  0  0  0  0  0  0
   -6.2110   -1.3360  -18.6210 C   0  0  0  0  0  0  0  0  0  0  0  0
   -6.9340   -3.5100  -15.7120 C   0  0  0  0  0  0  0  0  0  0  0  0
   -8.1800   -4.2650  -15.5300 O   0  0  0  0  0  0  0  0  0  0  0  0
   -6.2780   -3.8130  -14.7450 O   0  0  0  0  0  0  0  0  0  0  0  0
   -1.7150   -2.9840  -17.0330 C   0  0  0  0  0  0  0  0  0  0  0  0
   -4.0620   -2.0000  -16.3070 C   0  0  0  0  0  0  0  0  0  0  0  0
   -4.2850   -0.8090  -19.5290 C   0  0  0  0  0  0  0  0  0  0  0  0
  -10.0650   -2.1910  -17.7400 O   0  0  0  0  0  0  0  0  0  0  0  0
   -3.1490   -3.2010  -16.3630 C   0  0  0  0  0  0  0  0  0  0  0  0
   -6.2600   -2.7910  -16.6160 N   0  0  0  0  0  0  0  0  0  0  0  0
   -0.4310   -1.8620  -19.0100 C   0  0  0  0  0  0  0  0  0  0  0  0
   -1.8630   -2.1520  -18.3970 C   0  0  2  0  0  0  0  0  0  0  0  0
   -0.6140   -1.7070  -20.4810 C   0  0  0  0  0  0  0  0  0  0  0  0
   -7.8320   -1.6940  -17.8190 C   0  0  0  0  0  0  0  0  0  0  0  0
  1 15  1  0
  2 15  1  0
  2  3  1  0
  3 14  1  1
  4  7  2  0
  6 18  1  0
  7 22  1  0
  8  1  1  6
  8  3  1  0
  9  4  1  0
  2  9  1  1
  9  6  1  0
 10 11  2  0
 10 12  1  0
 13 17  1  0
 16  5  1  0
 17 14  1  0
 18 10  1  0
 20 19  1  1
 20  8  1  0
 20 13  1  0
 21 19  1  0
 22  6  2  0
 22  5  1  0
M  END
>  <rank>  (1) 
37

>  <composite_score>  (1) 
0.5215

>  <smiles>  (1) 
CCC1CCCC2C1CCC2C1N=NC(CO)=C1NC(=O)O

$$$$
