3pbq_imipenem_iter1_filtered_335
     RDKit          3D

 22 25  0  0  0  0  0  0  0  0999 V2000
   -1.8790   -0.9740  -16.3360 C   0  0  0  0  0  0  0  0  0  0  0  0
   -5.2100   -0.9940  -19.9460 O   0  0  0  0  0  0  0  0  0  0  0  0
   -7.9790   -2.7720  -17.6480 C   0  0  2  0  0  0  0  0  0  0  0  0
   -6.6860   -2.1200  -18.4800 C   0  0  0  0  0  0  0  0  0  0  0  0
   -3.5550   -0.5500  -18.5060 C   0  0  0  0  0  0  0  0  0  0  0  0
   -0.8120   -1.9790  -15.6240 C   0  0  1  0  0  0  0  0  0  0  0  0
   -7.0980   -3.1960  -16.3090 C   0  0  1  0  0  0  0  0  0  0  0  0
   -7.4210   -1.8640  -19.7000 O   0  0  0  0  0  0  0  0  0  0  0  0
   -3.0070   -3.1150  -15.3190 C   0  0  0  0  0  0  0  0  0  0  0  0
   -8.9680   -4.0980  -15.4850 C   0  0  0  0  0  0  0  0  0  0  0  0
   -1.8240   -2.9790  -14.8320 C   0  0  0  0  0  0  0  0  0  0  0  0
   -4.2630   -1.7730  -16.9780 C   0  0  0  0  0  0  0  0  0  0  0  0
   -5.1670   -2.1470  -16.5440 N   0  0  0  0  0  0  0  0  0  0  0  0
   -5.7650   -2.5850  -16.2800 C   0  0  0  0  0  0  0  0  0  0  0  0
   -3.1590   -1.9100  -16.2470 C   0  0  2  0  0  0  0  0  0  0  0  0
   -9.5340   -4.0330  -16.7400 C   0  0  0  0  0  0  0  0  0  0  0  0
   -3.7870   -0.5060  -19.9750 C   0  0  0  0  0  0  0  0  0  0  0  0
   -5.5360   -1.6040  -18.6710 C   0  0  0  0  0  0  0  0  0  0  0  0
    0.5150   -2.2530  -16.2640 C   0  0  0  0  0  0  0  0  0  0  0  0
   -4.5170   -1.3100  -17.9610 C   0  0  2  0  0  0  0  0  0  0  0  0
   -7.8010   -3.5630  -15.5180 C   0  0  0  0  0  0  0  0  0  0  0  0
   -9.0560   -3.2700  -17.7430 C   0  0  0  0  0  0  0  0  0  0  0  0
  1  6  1  0
  2 18  1  0
  3 22  1  6
  3  7  1  0
  4  3  1  0
  6 19  1  6
  6 11  1  0
  7 14  1  1
  7 21  1  0
  8  4  1  0
  9 11  1  0
 12 13  1  0
 15 12  1  6
 13 14  1  0
 15  1  1  0
 15  9  1  0
 16 10  1  0
 17  2  1  0
 17  5  1  0
 18  4  2  3
 18 20  1  0
 20  5  1  6
 20 12  1  0
 21 10  1  0
 22 16  2  0
M  END
>  <rank>  (1) 
30

>  <composite_score>  (1) 
0.5349

>  <smiles>  (1) 
CC1CCC(C2NCC3CCC=CC3C(O)=C3OCCC32)C1

$$$$
