3pbq_imipenem_iter1_filtered_294
     RDKit          3D

 19 22  0  0  0  0  0  0  0  0999 V2000
   -6.0940   -2.5500  -16.5880 C   0  0  0  0  0  0  0  0  0  0  0  0
   -2.6910   -0.4420  -19.2200 N   0  0  0  0  0  0  0  0  0  0  0  0
   -7.4680   -1.7290  -18.4940 C   0  0  0  0  0  0  0  0  0  0  0  0
   -4.0550   -0.8070  -19.3730 C   0  0  0  0  0  0  0  0  0  0  0  0
   -4.8140   -2.1380  -17.0760 C   0  0  0  0  0  0  0  0  0  0  0  0
   -4.8910   -1.5020  -18.3850 C   0  0  0  0  0  0  0  0  0  0  0  0
   -7.3110   -2.3450  -17.2470 C   0  0  0  0  0  0  0  0  0  0  0  0
   -2.1060   -1.0210  -18.1350 C   0  0  0  0  0  0  0  0  0  0  0  0
   -8.2910   -2.8860  -16.4310 N   0  0  0  0  0  0  0  0  0  0  0  0
   -7.6910   -3.3290  -15.2980 C   0  0  0  0  0  0  0  0  0  0  0  0
   -0.0770   -1.3340  -16.8940 C   0  0  0  0  0  0  0  0  0  0  0  0
   -6.4110   -3.1400  -15.3820 N   0  0  0  0  0  0  0  0  0  0  0  0
   -4.7590   -0.4920  -20.4430 N   0  0  0  0  0  0  0  0  0  0  0  0
   -0.7660   -0.9250  -17.7980 C   0  0  0  0  0  0  0  0  0  0  0  0
   -2.3350   -2.1770  -16.0780 C   0  0  0  0  0  0  0  0  0  0  0  0
   -2.8210   -1.6530  -17.2200 C   0  0  0  0  0  0  0  0  0  0  0  0
   -6.2170   -1.3710  -19.0070 C   0  0  0  0  0  0  0  0  0  0  0  0
   -6.0280   -0.7560  -20.2930 N   0  0  0  0  0  0  0  0  0  0  0  0
   -1.0460   -1.9270  -16.0070 C   0  0  0  0  0  0  0  0  0  0  0  0
  1 12  2  0
  2  8  1  0
  3  7  2  0
  4  2  1  0
  4  6  1  0
  5  1  1  0
  6  5  2  0
  7  1  1  0
  7  9  1  0
  8 14  2  0
  8 16  1  0
  9 10  2  0
 11 19  2  0
 12 10  1  0
 13 18  1  0
 13  4  2  0
 14 11  1  0
 15 19  1  0
 16 15  2  0
 17  3  1  0
 17  6  1  0
 18 17  2  0
M  END
>  <rank>  (1) 
6

>  <composite_score>  (1) 
0.6238

>  <smiles>  (1) 
C1=Nc2cc3c(cc2=N1)C(Nc1ccccc1)=NN=3

$$$$
