3pbq_imipenem_iter1_filtered_372
     RDKit          3D

 21 23  0  0  0  0  0  0  0  0999 V2000
   -8.1980   -3.5270  -15.2530 C   0  0  0  0  0  0  0  0  0  0  0  0
   -1.1210   -2.6710  -15.3240 C   0  0  0  0  0  0  0  0  0  0  0  0
   -2.7430   -0.5400  -18.1970 C   0  0  0  0  0  0  0  0  0  0  0  0
   -8.6830   -1.2830  -18.0660 N   0  0  0  0  0  0  0  0  0  0  0  0
   -5.9330   -1.2270  -19.6460 F   0  0  0  0  0  0  0  0  0  0  0  0
   -4.4780   -1.6800  -17.1440 C   0  0  1  0  0  0  0  0  0  0  0  0
   -5.9430   -1.6950  -18.6930 C   0  0  0  0  0  0  0  0  0  0  0  0
   -8.7920   -2.6160  -16.0440 O   0  0  0  0  0  0  0  0  0  0  0  0
   -0.6370   -3.1180  -17.9080 C   0  0  0  0  0  0  0  0  0  0  0  0
   -2.9950   -2.6960  -17.0740 C   0  0  2  0  0  0  0  0  0  0  0  0
   -4.1240   -3.2040  -16.2530 S   0  0  0  0  0  0  0  0  0  0  0  0
   -7.0010   -3.5420  -15.5110 N   0  0  0  0  0  0  0  0  0  0  0  0
   -1.5390   -0.8770  -18.8360 C   0  0  1  0  0  0  0  0  0  0  0  0
   -1.6910   -3.0570  -16.7600 C   0  0  2  0  0  0  0  0  0  0  0  0
   -0.8150   -1.8540  -18.3910 C   0  0  0  0  0  0  0  0  0  0  0  0
   -1.0070   -0.2120  -20.1000 C   0  0  0  0  0  0  0  0  0  0  0  0
   -0.4510   -1.2850  -20.9710 O   0  0  0  0  0  0  0  0  0  0  0  0
   -7.9980   -2.0590  -16.9250 C   0  0  0  0  0  0  0  0  0  0  0  0
   -6.7850   -2.5270  -16.5250 C   0  0  0  0  0  0  0  0  0  0  0  0
   -3.5870   -1.5650  -17.4580 C   0  0  0  0  0  0  0  0  0  0  0  0
   -5.6470   -2.0890  -17.3100 C   0  0  2  0  0  0  0  0  0  0  0  0
  4 18  1  0
  5  7  1  0
  6 21  1  0
  6 11  1  1
  8  1  1  0
  9 14  1  0
 10 14  1  0
 10 11  1  1
 12  1  2  0
 13 16  1  6
 13 15  1  0
 13  3  1  0
 14  2  1  1
 15  9  1  0
 17 16  1  0
 18 19  2  0
 18  8  1  0
 19 12  1  0
 20  3  1  0
 20  6  1  0
 20 10  1  0
 21  7  1  1
 21 19  1  0
M  END
>  <rank>  (1) 
21

>  <composite_score>  (1) 
0.5614

>  <smiles>  (1) 
CC1CCC(CO)CC2C1SC2C(CF)c1ncoc1N

$$$$
