3pbq_imipenem_iter1_filtered_175
     RDKit          3D

 22 25  0  0  0  0  0  0  0  0999 V2000
   -6.6300   -2.2610  -19.3430 C   0  0  0  0  0  0  0  0  0  0  0  0
   -7.2070   -2.1950  -18.0440 C   0  0  2  0  0  0  0  0  0  0  0  0
   -2.0180   -2.0120  -19.0320 C   0  0  0  0  0  0  0  0  0  0  0  0
   -6.6680   -2.6290  -16.8280 N   0  0  0  0  0  0  0  0  0  0  0  0
   -3.6030   -2.8140  -14.8580 C   0  0  0  0  0  0  0  0  0  0  0  0
   -4.9170   -2.9440  -15.3840 C   0  0  0  0  0  0  0  0  0  0  0  0
   -0.4830   -3.5780  -20.2330 C   0  0  0  0  0  0  0  0  0  0  0  0
    0.3020   -1.7850  -17.1680 O   0  0  0  0  0  0  0  0  0  0  0  0
   -2.1590   -1.5150  -17.4450 C   0  0  1  0  0  0  0  0  0  0  0  0
   -1.4550   -1.9740  -16.0300 N   0  0  0  0  0  0  0  0  0  0  0  0
   -2.7040   -2.1770  -15.7690 C   0  0  0  0  0  0  0  0  0  0  0  0
    0.2650   -1.2380  -20.0860 C   0  0  0  0  0  0  0  0  0  0  0  0
   -8.9420   -2.6590  -16.6570 C   0  0  0  0  0  0  0  0  0  0  0  0
   -0.9990   -2.0060  -19.5340 C   0  0  0  0  0  0  0  0  0  0  0  0
   -5.2450   -2.5740  -16.5490 C   0  0  0  0  0  0  0  0  0  0  0  0
   -8.5010   -1.8230  -17.6930 N   0  0  0  0  0  0  0  0  0  0  0  0
   -9.1980   -0.9770  -18.1840 O   0  0  0  0  0  0  0  0  0  0  0  0
   -4.4720   -1.7920  -17.3460 C   0  0  0  0  0  0  0  0  0  0  0  0
   -0.9340   -1.9280  -17.1490 C   0  0  0  0  0  0  0  0  0  0  0  0
   -3.2240   -1.7620  -16.6170 C   0  0  0  0  0  0  0  0  0  0  0  0
   -7.7260   -3.7400  -15.0550 O   0  0  0  0  0  0  0  0  0  0  0  0
   -7.7570   -3.1500  -16.0830 C   0  0  0  0  0  0  0  0  0  0  0  0
  2  1  1  6
  2 16  1  0
  2  4  1  0
  4 15  1  0
  4 22  1  0
  6  5  2  0
 14  7  1  0
  8 19  2  0
  9  3  1  1
  9 19  1  0
  9 20  1  0
  9 10  1  0
 10 11  1  0
 11  5  1  0
 12 14  1  0
 13 22  1  0
 14  3  1  0
 15  6  1  0
 16 13  1  0
 17 16  1  0
 18 20  1  0
 18 15  2  0
 19 10  1  0
 20 11  2  0
 22 21  2  0
M  END
>  <rank>  (1) 
35

>  <composite_score>  (1) 
0.5225

>  <smiles>  (1) 
CC(C)CC12C(=O)N1c1ccc(N3C(=O)CN(O)C3C)cc12

$$$$
