3pbq_imipenem_iter1_filtered_218
     RDKit          3D

 22 25  0  0  0  0  0  0  0  0999 V2000
   -7.0390   -1.7930  -17.6280 C   0  0  1  0  0  0  0  0  0  0  0  0
   -7.0320   -2.7780  -19.7920 C   0  0  0  0  0  0  0  0  0  0  0  0
   -1.5610    0.2000  -19.9510 C   0  0  0  0  0  0  0  0  0  0  0  0
   -8.5900   -1.7650  -16.9530 C   0  0  0  0  0  0  0  0  0  0  0  0
   -2.8240    0.1640  -20.5230 C   0  0  0  0  0  0  0  0  0  0  0  0
   -5.3210   -3.5710  -16.9670 C   0  0  0  0  0  0  0  0  0  0  0  0
   -3.5310   -1.1310  -18.7320 C   0  0  0  0  0  0  0  0  0  0  0  0
   -8.6690   -2.8030  -16.0370 N   0  0  0  0  0  0  0  0  0  0  0  0
   -2.2310   -1.2110  -18.1330 C   0  0  0  0  0  0  0  0  0  0  0  0
   -7.4450   -3.3530  -15.8750 C   0  0  0  0  0  0  0  0  0  0  0  0
   -3.1590   -2.9770  -16.6710 C   0  0  0  0  0  0  0  0  0  0  0  0
   -7.2090   -4.1820  -15.0000 O   0  0  0  0  0  0  0  0  0  0  0  0
   -4.6560   -1.4890  -17.6710 C   0  0  1  0  0  0  0  0  0  0  0  0
   -5.8670   -0.9970  -17.9370 C   0  0  0  0  0  0  0  0  0  0  0  0
   -9.5570   -0.9790  -17.2250 C   0  0  0  0  0  0  0  0  0  0  0  0
   -3.7920   -0.3040  -19.8250 C   0  0  0  0  0  0  0  0  0  0  0  0
    0.0480   -0.1760  -18.3180 O   0  0  0  0  0  0  0  0  0  0  0  0
   -6.5340   -2.9240  -16.7360 C   0  0  2  0  0  0  0  0  0  0  0  0
   -2.0090   -1.9420  -16.8910 C   0  0  0  0  0  0  0  0  0  0  0  0
   -1.3600   -0.3940  -18.7790 C   0  0  0  0  0  0  0  0  0  0  0  0
   -4.2440   -2.8140  -17.6150 C   0  0  2  0  0  0  0  0  0  0  0  0
   -7.5110   -2.2450  -18.7720 C   0  0  0  0  0  0  0  0  0  0  0  0
  1 22  1  6
  1  4  1  0
  1 18  1  0
  2 22  2  0
  3 20  2  0
  4  8  1  0
  5  3  1  0
  5 16  2  0
  7  9  2  0
  7 13  1  0
  8 10  1  0
  9 19  1  0
 10 12  2  0
 13 14  1  6
 13 21  1  0
 14  1  1  0
 15  4  2  0
 16  7  1  0
 18  6  1  6
 18 10  1  0
 19 11  1  0
 20 17  1  0
 20  9  1  0
 21  6  1  1
 21 11  1  0
M  END
>  <rank>  (1) 
16

>  <composite_score>  (1) 
0.5869

>  <smiles>  (1) 
C=CC12CC3c4cccc(O)c4CCC3CC1C(=O)NC2=C

$$$$
