3pbq_imipenem_iter1_filtered_76
     RDKit          3D

 22 25  0  0  0  0  0  0  0  0999 V2000
   -9.0980   -2.5440  -17.2110 C   0  0  0  0  0  0  0  0  0  0  0  0
   -2.3270   -3.2370  -15.1540 C   0  0  0  0  0  0  0  0  0  0  0  0
   -7.5800   -2.4860  -17.4570 C   0  0  0  0  0  0  0  0  0  0  0  0
   -3.5740   -2.2700  -17.0500 C   0  0  0  0  0  0  0  0  0  0  0  0
   -1.3610   -1.2900  -17.3160 C   0  0  0  0  0  0  0  0  0  0  0  0
   -2.6980   -1.5090  -17.8390 C   0  0  0  0  0  0  0  0  0  0  0  0
   -4.8800   -2.2910  -17.3420 C   0  0  0  0  0  0  0  0  0  0  0  0
   -7.6960   -4.6080  -14.8490 O   0  0  0  0  0  0  0  0  0  0  0  0
   -6.9520   -1.8790  -18.5390 C   0  0  0  0  0  0  0  0  0  0  0  0
   -0.6180   -0.1410  -17.9960 N   0  0  0  0  0  0  0  0  0  0  0  0
   -2.9900   -1.2010  -19.1120 O   0  0  0  0  0  0  0  0  0  0  0  0
   -1.1260   -2.5970  -15.2000 C   0  0  0  0  0  0  0  0  0  0  0  0
   -1.9140   -0.8830  -20.0420 C   0  0  0  0  0  0  0  0  0  0  0  0
   -7.5810   -1.3090  -19.4980 O   0  0  0  0  0  0  0  0  0  0  0  0
   -5.5290   -1.8240  -18.4380 C   0  0  0  0  0  0  0  0  0  0  0  0
   -0.7570   -1.7840  -16.2130 C   0  0  0  0  0  0  0  0  0  0  0  0
   -5.6060   -3.0590  -16.4400 C   0  0  0  0  0  0  0  0  0  0  0  0
   -3.3040   -2.9800  -16.0300 C   0  0  0  0  0  0  0  0  0  0  0  0
   -9.2030   -3.4110  -16.0750 N   0  0  0  0  0  0  0  0  0  0  0  0
   -7.9250   -3.7730  -15.6940 C   0  0  0  0  0  0  0  0  0  0  0  0
   -6.9540   -3.1130  -16.4310 C   0  0  0  0  0  0  0  0  0  0  0  0
   -0.6330   -0.2830  -19.4480 C   0  0  0  0  0  0  0  0  0  0  0  0
  1 19  2  0
  3  1  1  0
  3 21  2  0
  4 18  1  0
  5 16  2  0
  6  5  1  0
  6  4  2  0
  7  4  1  0
  7 17  2  0
  9 15  2  0
  9  3  1  0
 10  5  1  0
 11  6  1  0
 12  2  1  0
 13 22  2  0
 13 11  1  0
 14  9  1  0
 15  7  1  0
 16 12  1  0
 17 21  1  0
 18  2  2  0
 19 20  1  0
 20  8  2  0
 21 20  1  0
 22 10  1  0
M  END
>  <rank>  (1) 
9

>  <composite_score>  (1) 
0.6096

>  <smiles>  (1) 
O=C1N=Cc2c(O)cc(C3=C4OC=CNC4=CCC=C3)cc21

$$$$
