3pbq_imipenem_iter1_filtered_247
     RDKit          3D

 19 22  0  0  0  0  0  0  0  0999 V2000
   -4.7290   -2.1910  -18.9360 C   0  0  1  0  0  0  0  0  0  0  0  0
   -1.2540   -1.4610  -19.6690 C   0  0  0  0  0  0  0  0  0  0  0  0
   -1.9960   -3.1810  -15.9840 C   0  0  1  0  0  0  0  0  0  0  0  0
   -4.2550   -2.4010  -16.7660 C   0  0  0  0  0  0  0  0  0  0  0  0
   -8.6610   -1.0190  -16.9470 O   0  0  0  0  0  0  0  0  0  0  0  0
   -3.7790   -0.9330  -19.5070 C   0  0  0  0  0  0  0  0  0  0  0  0
   -8.8710   -3.2500  -17.6690 O   0  0  0  0  0  0  0  0  0  0  0  0
   -3.6750   -2.2930  -18.1650 C   0  0  1  0  0  0  0  0  0  0  0  0
   -5.6880   -2.4550  -16.4160 C   0  0  0  0  0  0  0  0  0  0  0  0
   -2.6620   -1.4880  -18.9290 C   0  0  1  0  0  0  0  0  0  0  0  0
   -6.1050   -1.4750  -18.5250 C   0  0  1  0  0  0  0  0  0  0  0  0
   -8.1710   -2.2820  -16.8760 S   0  0  0  0  0  0  0  0  0  0  0  0
   -0.8310   -2.4320  -15.3240 C   0  0  0  0  0  0  0  0  0  0  0  0
   -8.1410   -2.7760  -15.4950 O   0  0  0  0  0  0  0  0  0  0  0  0
   -2.2730   -1.9130  -16.7710 C   0  0  2  0  0  0  0  0  0  0  0  0
   -3.7650   -1.6470  -17.1120 C   0  0  2  0  0  0  0  0  0  0  0  0
   -1.0110   -2.5300  -16.8330 C   0  0  2  0  0  0  0  0  0  0  0  0
   -7.0960   -1.4410  -19.6170 C   0  0  0  0  0  0  0  0  0  0  0  0
   -6.7130   -2.2190  -17.3690 C   0  0  2  0  0  0  0  0  0  0  0  0
  1  6  1  6
  1 11  1  0
  1  8  1  0
 10  2  1  6
  3 13  1  1
  4  9  1  0
 12  5  1  0
  6 10  1  0
  7 12  1  0
  8 16  1  0
  8 10  1  6
 11 19  1  0
 12 14  1  0
 15  3  1  0
 15 16  1  6
 16  4  1  1
 17 15  1  0
 17  3  1  0
 17 13  1  1
 11 18  1  6
 19 12  1  1
 19  9  1  0
M  END
>  <rank>  (1) 
50

>  <composite_score>  (1) 
0.4911

>  <smiles>  (1) 
CC1CC2C(C)C(S(O)(O)O)CCC(C3C4CC43)C12

$$$$
