3pbq_imipenem_iter1_filtered_110
     RDKit          3D

 19 21  0  0  0  0  0  0  0  0999 V2000
   -4.6490   -1.2060  -18.6210 C   0  0  2  0  0  0  0  0  0  0  0  0
   -2.1560   -3.3840  -16.3680 C   0  0  0  0  0  0  0  0  0  0  0  0
   -1.9900   -2.0080  -15.8900 C   0  0  0  0  0  0  0  0  0  0  0  0
   -1.8500   -1.0980  -17.9600 C   0  0  1  0  0  0  0  0  0  0  0  0
   -6.1400   -3.3740  -15.6240 O   0  0  0  0  0  0  0  0  0  0  0  0
   -4.6050   -2.0380  -16.1370 N   0  0  0  0  0  0  0  0  0  0  0  0
   -1.1940   -1.0030  -20.3220 F   0  0  0  0  0  0  0  0  0  0  0  0
   -8.4320   -3.0490  -16.4100 O   0  0  0  0  0  0  0  0  0  0  0  0
   -7.8930   -2.4210  -17.3380 C   0  0  0  0  0  0  0  0  0  0  0  0
   -0.7260   -0.7740  -17.3730 C   0  0  0  0  0  0  0  0  0  0  0  0
   -5.8040   -2.6040  -16.3210 C   0  0  0  0  0  0  0  0  0  0  0  0
   -6.5790   -2.1450  -17.4800 C   0  0  0  0  0  0  0  0  0  0  0  0
   -2.1710   -0.9880  -19.3800 C   0  0  2  0  0  0  0  0  0  0  0  0
    0.5260   -0.5390  -16.8420 C   0  0  0  0  0  0  0  0  0  0  0  0
   -6.0440   -1.4930  -18.6300 C   0  0  0  0  0  0  0  0  0  0  0  0
   -8.8290   -2.0360  -18.3260 N   0  0  0  0  0  0  0  0  0  0  0  0
   -4.1070   -1.2730  -17.2370 C   0  0  1  0  0  0  0  0  0  0  0  0
   -3.7430   -0.6340  -19.9140 S   0  0  0  0  0  0  0  0  0  0  0  0
   -2.7810   -1.8750  -17.0330 C   0  0  0  0  0  0  0  0  0  0  0  0
  1 15  1  0
  1 17  1  0
  2  3  1  0
  4 10  1  6
  4 19  1  0
  9  8  2  0
 10 14  1  0
 11  6  1  0
 11  5  2  0
 12  9  1  0
 12 11  1  0
 13  7  1  1
 13  4  1  0
 15 12  2  0
 16  9  1  0
 17 19  1  0
 17  6  1  1
 18 13  1  0
  1 18  1  1
 19  2  1  0
 19  3  1  0
M  END
>  <rank>  (1) 
26

>  <composite_score>  (1) 
0.5417

>  <smiles>  (1) 
CCC1C(F)SC2C=C(C(N)=O)C(=O)NC2C12CC2

$$$$
