3pbq_imipenem_iter1_filtered_370
     RDKit          3D

 20 21  0  0  0  0  0  0  0  0999 V2000
   -9.6220   -2.2550  -17.9780 O   0  0  0  0  0  0  0  0  0  0  0  0
   -3.7370   -3.1860  -16.3360 C   0  0  1  0  0  0  0  0  0  0  0  0
   -1.4870    0.4290  -19.6100 C   0  0  0  0  0  0  0  0  0  0  0  0
   -7.5480   -1.1060  -18.0240 O   0  0  0  0  0  0  0  0  0  0  0  0
   -2.7240   -1.8880  -15.8610 C   0  0  0  0  0  0  0  0  0  0  0  0
   -2.9510   -1.7610  -18.2020 C   0  0  0  0  0  0  0  0  0  0  0  0
   -2.0490   -0.6110  -20.2630 C   0  0  0  0  0  0  0  0  0  0  0  0
   -6.7590   -3.4130  -15.0430 O   0  0  0  0  0  0  0  0  0  0  0  0
   -1.5380    0.7950  -18.2200 C   0  0  0  0  0  0  0  0  0  0  0  0
   -5.1580   -2.9090  -16.2620 C   0  0  0  0  0  0  0  0  0  0  0  0
   -3.3380   -3.3400  -17.7130 C   0  0  0  0  0  0  0  0  0  0  0  0
   -2.7910   -1.6210  -19.4230 C   0  0  0  0  0  0  0  0  0  0  0  0
   -8.1550   -2.3270  -17.8850 S   0  0  0  0  0  0  0  0  0  0  0  0
   -1.7720    0.1420  -17.1590 C   0  0  0  0  0  0  0  0  0  0  0  0
   -8.7040   -4.1360  -16.3770 O   0  0  0  0  0  0  0  0  0  0  0  0
   -2.4260   -1.1200  -17.0980 C   0  0  0  0  0  0  0  0  0  0  0  0
   -8.3040   -3.1400  -16.5680 C   0  0  0  0  0  0  0  0  0  0  0  0
   -7.6410   -2.5330  -15.5340 C   0  0  0  0  0  0  0  0  0  0  0  0
   -7.5180   -3.1800  -18.8140 O   0  0  0  0  0  0  0  0  0  0  0  0
   -6.1700   -3.8020  -15.6860 C   0  0  0  0  0  0  0  0  0  0  0  0
 13  1  1  0
  2 10  1  6
  2  5  1  0
  3  9  1  0
  4 13  1  0
  6 11  1  0
  6 16  1  0
  7  3  2  0
  7 12  1  0
  9 14  1  0
 10 20  1  0
 11  2  1  0
 12  6  2  0
 13 17  1  0
 14 16  2  0
 16  5  1  0
 17 15  2  0
 17 18  1  0
 18  8  1  0
 19 13  1  0
 20  8  1  0
M  END
>  <rank>  (1) 
25

>  <composite_score>  (1) 
0.5425

>  <smiles>  (1) 
O=C(COCCC1CC2=CC=CCC=C2C1)S(O)(O)O

$$$$
