3pbq_imipenem_iter1_filtered_140
     RDKit          3D

 19 21  0  0  0  0  0  0  0  0999 V2000
   -4.1860   -2.9820  -16.3020 C   0  0  0  0  0  0  0  0  0  0  0  0
   -5.7990   -1.5130  -17.9840 C   0  0  0  0  0  0  0  0  0  0  0  0
    0.1590    0.1400  -20.3090 O   0  0  0  0  0  0  0  0  0  0  0  0
   -9.4160   -3.4090  -16.8490 F   0  0  0  0  0  0  0  0  0  0  0  0
   -3.2870   -1.4560  -18.1520 C   0  0  0  0  0  0  0  0  0  0  0  0
   -4.6420   -1.1260  -18.6780 C   0  0  0  0  0  0  0  0  0  0  0  0
    0.0940    0.5390  -18.8040 C   0  0  0  0  0  0  0  0  0  0  0  0
   -8.3950   -2.6730  -17.0090 C   0  0  0  0  0  0  0  0  0  0  0  0
   -0.6510   -0.7070  -18.2040 C   0  0  0  0  0  0  0  0  0  0  0  0
   -7.1450   -0.9230  -18.3830 C   0  0  0  0  0  0  0  0  0  0  0  0
   -1.4960   -1.7440  -19.7450 C   0  0  0  0  0  0  0  0  0  0  0  0
   -3.0480   -2.0450  -16.8410 C   0  0  0  0  0  0  0  0  0  0  0  0
   -8.3500   -1.3440  -17.9220 C   0  0  0  0  0  0  0  0  0  0  0  0
   -1.9190   -1.7670  -16.1890 O   0  0  0  0  0  0  0  0  0  0  0  0
   -7.1850   -3.0580  -16.4550 C   0  0  0  0  0  0  0  0  0  0  0  0
   -5.7330   -2.6160  -16.8120 C   0  0  0  0  0  0  0  0  0  0  0  0
   -0.7390   -0.9440  -20.8830 C   0  0  0  0  0  0  0  0  0  0  0  0
   -1.7970   -1.2230  -18.6390 N   0  0  0  0  0  0  0  0  0  0  0  0
   -7.5600   -3.9140  -15.2630 Cl  0  0  0  0  0  0  0  0  0  0  0  0
  2 16  2  0
  3  7  1  0
  5 12  1  0
  6  5  2  0
  6  2  1  0
  7  9  1  0
  8  4  1  0
  8 15  2  0
 10  2  1  0
 10 13  2  0
 11 18  1  0
 12  1  2  0
 12 14  1  0
 13  8  1  0
 15 19  1  0
 16 15  1  0
 16  1  1  0
 17  3  1  0
 17 11  1  0
 18  9  1  0
 18  5  1  0
M  END
>  <rank>  (1) 
5

>  <composite_score>  (1) 
0.6246

>  <smiles>  (1) 
Oc1cc2c(Cl)c(F)ccc2cc1N1CCOCC1

$$$$
