3pbq_imipenem_iter1_filtered_68
     RDKit          3D

 21 22  0  0  0  0  0  0  0  0999 V2000
    0.4030   -1.1220  -18.9540 N   0  0  0  0  0  0  0  0  0  0  0  0
   -5.6770   -1.0510  -17.9680 C   0  0  0  0  0  0  0  0  0  0  0  0
   -9.0100   -1.9660  -15.8060 F   0  0  0  0  0  0  0  0  0  0  0  0
   -6.8500   -2.1730  -19.6750 O   0  0  0  0  0  0  0  0  0  0  0  0
   -2.2010   -1.2810  -18.8570 C   0  0  2  0  0  0  0  0  0  0  0  0
   -3.5110   -1.1720  -19.4390 S   0  0  0  0  0  0  0  0  0  0  0  0
   -1.1700   -0.3960  -16.6200 C   0  0  0  0  0  0  0  0  0  0  0  0
   -8.4370   -2.7620  -17.9960 C   0  0  0  0  0  0  0  0  0  0  0  0
   -2.2900   -0.9170  -17.4810 C   0  0  1  0  0  0  0  0  0  0  0  0
   -3.4600   -1.0180  -17.1700 N   0  0  0  0  0  0  0  0  0  0  0  0
   -6.2680   -1.9730  -17.3820 N   0  0  0  0  0  0  0  0  0  0  0  0
   -0.3970   -0.7700  -21.0990 O   0  0  0  0  0  0  0  0  0  0  0  0
   -7.3420   -3.6340  -15.5690 C   0  0  0  0  0  0  0  0  0  0  0  0
   -4.3380   -0.9810  -18.0850 C   0  0  0  0  0  0  0  0  0  0  0  0
   -0.9600   -1.5360  -19.5410 C   0  0  1  0  0  0  0  0  0  0  0  0
   -9.6320   -4.0440  -16.4950 F   0  0  0  0  0  0  0  0  0  0  0  0
   -7.1480   -2.3190  -18.3910 C   0  0  0  0  0  0  0  0  0  0  0  0
   -5.8390   -2.8010  -16.1490 S   0  0  0  0  0  0  0  0  0  0  0  0
   -7.2190   -4.5770  -14.7860 O   0  0  0  0  0  0  0  0  0  0  0  0
   -8.6900   -3.1540  -16.3840 C   0  0  0  0  0  0  0  0  0  0  0  0
   -1.0610   -0.9590  -20.9100 O   0  0  0  0  0  0  0  0  0  0  0  0
  2 11  1  0
  4 17  2  0
  5 15  1  0
  5  9  1  0
  5  6  1  6
  6 14  1  0
  8 20  1  0
  9 10  1  0
  9  7  1  6
 11 18  1  0
 12 21  1  0
 13 19  2  0
 14  2  1  0
 14 10  2  0
 15  1  1  1
 20 16  1  0
 17  8  1  0
 17 11  1  0
 18 13  1  0
 20  3  1  0
 20 13  1  0
 21 15  1  0
M  END
>  <rank>  (1) 
40

>  <composite_score>  (1) 
0.5106

>  <smiles>  (1) 
CC1N=C(CN2SC(=O)C(F)(F)CC2=O)SC1C(N)OO

$$$$
