3pbq_imipenem_iter1_filtered_116
     RDKit          3D

 22 25  0  0  0  0  0  0  0  0999 V2000
  -10.6030   -0.8400  -16.3420 C   0  0  0  0  0  0  0  0  0  0  0  0
   -7.0570   -1.7890  -17.5330 C   0  0  0  0  0  0  0  0  0  0  0  0
   -7.4370   -3.9920  -14.7060 O   0  0  0  0  0  0  0  0  0  0  0  0
   -7.5670   -2.5020  -16.4370 C   0  0  2  0  0  0  0  0  0  0  0  0
   -8.4940   -0.9360  -18.2750 S   0  0  0  0  0  0  0  0  0  0  0  0
   -8.7930   -2.1130  -15.9190 N   0  0  0  0  0  0  0  0  0  0  0  0
   -1.3750    0.8810  -17.3880 C   0  0  0  0  0  0  0  0  0  0  0  0
   -0.6040    0.5350  -18.6580 C   0  0  0  0  0  0  0  0  0  0  0  0
   -0.6920   -0.2550  -20.9670 O   0  0  0  0  0  0  0  0  0  0  0  0
   -5.4830   -3.4430  -15.9420 N   0  0  0  0  0  0  0  0  0  0  0  0
   -5.0970   -1.1040  -18.9550 C   0  0  0  0  0  0  0  0  0  0  0  0
   -3.4480    0.0040  -21.0660 O   0  0  0  0  0  0  0  0  0  0  0  0
   -5.6990   -1.8150  -17.8580 C   0  0  0  0  0  0  0  0  0  0  0  0
   -2.8100   -0.3560  -19.8960 N   0  0  0  0  0  0  0  0  0  0  0  0
   -3.6410   -0.8650  -18.8540 C   0  0  0  0  0  0  0  0  0  0  0  0
   -6.7520   -3.3130  -15.6630 C   0  0  0  0  0  0  0  0  0  0  0  0
   -3.0290   -1.1200  -17.5260 C   0  0  0  0  0  0  0  0  0  0  0  0
   -2.1510   -0.1020  -16.8220 C   0  0  0  0  0  0  0  0  0  0  0  0
   -9.3320   -1.3160  -16.7760 C   0  0  0  0  0  0  0  0  0  0  0  0
   -4.8660   -2.5440  -16.8970 C   0  0  0  0  0  0  0  0  0  0  0  0
   -1.3580   -0.0160  -19.9280 C   0  0  0  0  0  0  0  0  0  0  0  0
   -3.4780   -2.2820  -16.8990 C   0  0  0  0  0  0  0  0  0  0  0  0
  2  5  1  0
  2  4  1  0
  4  6  1  1
  4 16  1  0
  5 19  1  0
  7 18  1  0
  8  7  1  0
  9 21  2  0
 10 16  1  0
 11 15  2  0
 11 13  1  0
 12 14  1  0
 13  2  1  0
 13 20  2  0
 14 15  1  0
 15 17  1  0
 16  3  2  0
 17 22  2  0
 17 18  1  0
 19  1  1  0
 19  6  1  0
 20 10  1  0
 21 14  1  0
 21  8  1  0
 22 20  1  0
M  END
>  <rank>  (1) 
27

>  <composite_score>  (1) 
0.5400

>  <smiles>  (1) 
CC1NC2C(=O)Nc3cc4c(cc3C2S1)N(O)C(=O)CCC4

$$$$
