3pbq_imipenem_iter1_filtered_202
     RDKit          3D

 22 24  0  0  0  0  0  0  0  0999 V2000
   -1.0160   -1.2100  -16.6510 O   0  0  0  0  0  0  0  0  0  0  0  0
   -7.4160   -1.2650  -18.3870 C   0  0  0  0  0  0  0  0  0  0  0  0
   -4.4830   -2.3290  -16.7390 C   0  0  2  0  0  0  0  0  0  0  0  0
   -4.3000   -3.1530  -15.5530 C   0  0  0  0  0  0  0  0  0  0  0  0
   -1.1380   -1.1340  -17.8600 C   0  0  0  0  0  0  0  0  0  0  0  0
   -3.4520   -0.7320  -17.9750 C   0  0  2  0  0  0  0  0  0  0  0  0
   -8.2300   -4.1760  -15.2150 O   0  0  0  0  0  0  0  0  0  0  0  0
   -0.0270   -1.3800  -18.5020 C   0  0  0  0  0  0  0  0  0  0  0  0
   -7.7290   -3.2160  -16.3020 C   0  0  2  0  0  0  0  0  0  0  0  0
   -6.3800   -2.3050  -16.7080 C   0  0  2  0  0  0  0  0  0  0  0  0
   -8.9790   -2.6810  -16.8850 C   0  0  0  0  0  0  0  0  0  0  0  0
    0.1500   -1.3880  -19.8090 C   0  0  0  0  0  0  0  0  0  0  0  0
   -5.5250   -1.4350  -18.8710 C   0  0  0  0  0  0  0  0  0  0  0  0
   -5.6260   -3.8320  -15.8450 O   0  0  0  0  0  0  0  0  0  0  0  0
   -2.8500   -2.7490  -17.7640 C   0  0  0  0  0  0  0  0  0  0  0  0
   -3.6740   -2.1450  -17.4220 C   0  0  0  0  0  0  0  0  0  0  0  0
   -2.1280   -0.7440  -19.7410 C   0  0  0  0  0  0  0  0  0  0  0  0
   -4.4910   -0.6920  -19.2160 C   0  0  0  0  0  0  0  0  0  0  0  0
   -8.7600   -1.8940  -17.8400 C   0  0  0  0  0  0  0  0  0  0  0  0
   -0.9410   -0.9000  -20.4030 C   0  0  0  0  0  0  0  0  0  0  0  0
   -2.1780   -0.7430  -18.4880 C   0  0  0  0  0  0  0  0  0  0  0  0
   -6.6760   -1.6250  -17.9400 C   0  0  0  0  0  0  0  0  0  0  0  0
  2 22  1  0
  2 19  1  0
  3 10  1  0
  3  4  1  6
  5  1  2  0
  6 21  1  6
  6 16  1  0
  8  5  1  0
  9  7  1  1
 10  9  1  0
 11  9  1  0
 12  8  2  0
 13 22  1  0
 14  4  1  0
 15 16  2  0
 16  3  1  0
 17 21  2  0
 18 13  1  0
 18  6  1  0
 19 11  1  0
 20 12  1  0
 20 17  1  0
 21  5  1  0
 10 22  1  6
M  END
>  <rank>  (1) 
42

>  <composite_score>  (1) 
0.5055

>  <smiles>  (1) 
C=C1C(C2=CCC=CC2=O)CCC2CCCC(O)C2C1CO

$$$$
