3pbq_imipenem_iter1_filtered_87
     RDKit          3D

 21 23  0  0  0  0  0  0  0  0999 V2000
   -4.0040   -2.1330  -16.6500 C   0  0  0  0  0  0  0  0  0  0  0  0
   -0.8520   -0.0830  -17.1420 C   0  0  0  0  0  0  0  0  0  0  0  0
   -9.2390   -4.3120  -16.7770 O   0  0  0  0  0  0  0  0  0  0  0  0
   -3.2720   -0.5460  -18.5140 C   0  0  2  0  0  0  0  0  0  0  0  0
   -1.6900   -3.3440  -17.1570 C   0  0  0  0  0  0  0  0  0  0  0  0
   -7.7320   -2.3990  -18.2380 C   0  0  0  0  0  0  0  0  0  0  0  0
   -6.7540   -1.8120  -18.9920 C   0  0  0  0  0  0  0  0  0  0  0  0
   -2.4580   -0.5260  -19.7080 C   0  0  0  0  0  0  0  0  0  0  0  0
  -10.0850   -3.5900  -17.5380 C   0  0  0  0  0  0  0  0  0  0  0  0
   -7.3960   -2.8980  -16.9990 C   0  0  0  0  0  0  0  0  0  0  0  0
   -5.2900   -2.0020  -17.1580 C   0  0  0  0  0  0  0  0  0  0  0  0
   -5.5250   -1.5930  -18.4840 C   0  0  0  0  0  0  0  0  0  0  0  0
   -3.0510   -1.1960  -17.2640 C   0  0  2  0  0  0  0  0  0  0  0  0
   -4.5520   -0.9300  -19.0410 O   0  0  0  0  0  0  0  0  0  0  0  0
   -1.8600   -2.0510  -17.9920 C   0  0  1  0  0  0  0  0  0  0  0  0
   -0.7300   -1.1560  -18.0900 C   0  0  0  0  0  0  0  0  0  0  0  0
   -7.8360   -4.0760  -15.0880 O   0  0  0  0  0  0  0  0  0  0  0  0
   -6.2060   -2.6910  -16.4500 C   0  0  0  0  0  0  0  0  0  0  0  0
    0.5590   -1.7320  -17.8990 C   0  0  0  0  0  0  0  0  0  0  0  0
   -1.1190   -0.7980  -19.4960 C   0  0  0  0  0  0  0  0  0  0  0  0
   -8.2200   -3.7300  -16.1740 C   0  0  0  0  0  0  0  0  0  0  0  0
  3 21  1  0
  4  8  1  6
  4 13  1  0
  6 10  2  0
  7 12  2  0
  7  6  1  0
  8 20  1  0
  9  3  1  0
 10 18  1  0
 10 21  1  0
 11  1  1  0
 11 18  2  0
 12 11  1  0
 13  1  1  6
 14  4  1  0
 14 12  1  0
 15 13  1  0
 15  5  1  1
 16 15  1  0
 16 19  1  0
 16  2  1  0
 20 16  1  0
 21 17  2  0
M  END
>  <rank>  (1) 
31

>  <composite_score>  (1) 
0.5324

>  <smiles>  (1) 
COC(=O)c1ccc2c(c1)CC1C(CCC(C)(C)C1C)O2

$$$$
