3pbq_imipenem_iter1_filtered_334
     RDKit          3D

 21 23  0  0  0  0  0  0  0  0999 V2000
   -3.6910   -1.9050  -16.8650 C   0  0  0  0  0  0  0  0  0  0  0  0
   -8.3450   -4.6510  -15.0250 O   0  0  0  0  0  0  0  0  0  0  0  0
   -6.8660   -3.2090  -16.0540 C   0  0  0  0  0  0  0  0  0  0  0  0
   -2.3300    0.2790  -17.8590 C   0  0  0  0  0  0  0  0  0  0  0  0
   -2.8170    0.1230  -19.3060 C   0  0  0  0  0  0  0  0  0  0  0  0
   -8.1460   -1.4910  -17.1030 C   0  0  0  0  0  0  0  0  0  0  0  0
   -8.0320   -3.8100  -16.0370 N   0  0  0  0  0  0  0  0  0  0  0  0
   -2.6210   -4.1420  -17.3490 C   0  0  0  0  0  0  0  0  0  0  0  0
   -8.9770   -3.5550  -17.1430 C   0  0  0  0  0  0  0  0  0  0  0  0
   -3.8300   -3.5450  -17.5090 C   0  0  0  0  0  0  0  0  0  0  0  0
   -3.9610   -1.0270  -19.1520 C   0  0  0  0  0  0  0  0  0  0  0  0
   -4.5490   -1.4360  -18.1450 C   0  0  1  0  0  0  0  0  0  0  0  0
   -1.6690   -2.7440  -15.3400 C   0  0  0  0  0  0  0  0  0  0  0  0
   -6.6850   -1.9900  -16.8790 C   0  0  2  0  0  0  0  0  0  0  0  0
   -1.5900   -3.2970  -16.8200 C   0  0  0  0  0  0  0  0  0  0  0  0
   -6.8060   -1.7900  -19.1240 C   0  0  0  0  0  0  0  0  0  0  0  0
   -8.4560   -2.5200  -18.2200 C   0  0  0  0  0  0  0  0  0  0  0  0
   -3.0730   -2.1740  -15.5120 C   0  0  0  0  0  0  0  0  0  0  0  0
   -3.2680   -0.3380  -16.8460 C   0  0  0  0  0  0  0  0  0  0  0  0
   -5.9430   -3.6030  -15.3300 O   0  0  0  0  0  0  0  0  0  0  0  0
   -5.8970   -1.8630  -18.0630 C   0  0  1  0  0  0  0  0  0  0  0  0
  1 19  1  0
  1 18  1  0
  3  7  1  0
  3 20  2  0
  4 19  1  0
  5 11  1  0
  5  4  1  0
 14  6  1  6
  7  2  1  0
  8 15  1  0
  9  7  1  0
 10  8  1  0
 10  1  1  0
 12 11  1  6
 12 21  1  0
 12  1  1  0
 14 21  1  0
 14  3  1  0
 15 13  1  0
 17  9  1  0
 17  6  1  0
 18 13  1  0
 21 16  1  6
M  END
>  <rank>  (1) 
22

>  <composite_score>  (1) 
0.5489

>  <smiles>  (1) 
CC(C1CCCN(O)C1=O)C1CCCCC12CCCCC2

$$$$
