3pbq_imipenem_iter1_filtered_169
     RDKit          3D

 20 21  0  0  0  0  0  0  0  0999 V2000
   -6.6200   -0.9160  -19.1430 O   0  0  0  0  0  0  0  0  0  0  0  0
   -4.2180   -1.0130  -17.9390 C   0  0  0  0  0  0  0  0  0  0  0  0
   -7.4850   -3.9310  -15.5210 O   0  0  0  0  0  0  0  0  0  0  0  0
   -2.9650   -0.4120  -17.8440 C   0  0  0  0  0  0  0  0  0  0  0  0
   -3.7090   -2.3040  -15.9500 C   0  0  0  0  0  0  0  0  0  0  0  0
    0.5280   -0.4750  -18.3620 C   0  0  0  0  0  0  0  0  0  0  0  0
   -6.6380   -3.2140  -19.3620 N   0  0  0  0  0  0  0  0  0  0  0  0
   -4.2550   -3.0630  -15.0470 F   0  0  0  0  0  0  0  0  0  0  0  0
    0.0860   -1.1530  -17.2200 C   0  0  0  0  0  0  0  0  0  0  0  0
   -9.7280   -4.1790  -17.4830 C   0  0  0  0  0  0  0  0  0  0  0  0
   -4.6880   -1.7660  -16.8440 C   0  0  0  0  0  0  0  0  0  0  0  0
   -2.4190   -1.8820  -15.9730 C   0  0  0  0  0  0  0  0  0  0  0  0
   -6.0760   -1.6490  -16.4740 C   0  0  0  0  0  0  0  0  0  0  0  0
   -0.7220   -0.1920  -16.7290 C   0  0  0  0  0  0  0  0  0  0  0  0
   -0.4660   -1.1900  -19.0720 C   0  0  0  0  0  0  0  0  0  0  0  0
   -7.0340   -2.3340  -17.1780 C   0  0  0  0  0  0  0  0  0  0  0  0
   -2.0520   -0.8530  -16.8330 C   0  0  0  0  0  0  0  0  0  0  0  0
   -7.0020   -2.0710  -18.5920 S   0  0  0  0  0  0  0  0  0  0  0  0
   -7.8970   -3.2240  -16.4370 C   0  0  0  0  0  0  0  0  0  0  0  0
   -9.2120   -3.1330  -16.7920 O   0  0  0  0  0  0  0  0  0  0  0  0
  1 18  2  0
  2  4  2  0
  2 11  1  0
  4 17  1  0
  5  8  1  0
  6  9  1  0
  9 14  1  0
 10 20  1  0
 11 13  1  0
 11  5  2  0
 12  5  1  0
 15  6  1  0
 15  9  1  0
 16 13  1  0
 16 19  1  0
 17 14  1  0
 17 12  2  0
 18  7  1  6
 18 16  1  0
 19  3  2  0
 20 19  1  0
M  END
>  <rank>  (1) 
33

>  <composite_score>  (1) 
0.5281

>  <smiles>  (1) 
COC(=O)C(Cc1ccc(CC2CC2)cc1F)S(N)=O

$$$$
