3pbq_imipenem_iter1_filtered_42
     RDKit          3D

 21 22  0  0  0  0  0  0  0  0999 V2000
   -3.7130   -1.9450  -17.0240 C   0  0  2  0  0  0  0  0  0  0  0  0
   -3.4040   -3.1810  -16.6200 C   0  0  0  0  0  0  0  0  0  0  0  0
   -6.4080   -1.9520  -17.1960 C   0  0  0  0  0  0  0  0  0  0  0  0
   -8.9490   -4.3780  -16.0820 O   0  0  0  0  0  0  0  0  0  0  0  0
    0.2050   -2.2150  -19.8500 C   0  0  0  0  0  0  0  0  0  0  0  0
   -8.5220   -1.3030  -17.9330 C   0  0  0  0  0  0  0  0  0  0  0  0
   -5.1020   -1.5040  -17.0510 C   0  0  0  0  0  0  0  0  0  0  0  0
   -9.1470   -2.2330  -17.1780 C   0  0  0  0  0  0  0  0  0  0  0  0
   -8.3480   -3.2420  -16.5280 C   0  0  0  0  0  0  0  0  0  0  0  0
   -6.2390   -3.7900  -15.4750 O   0  0  0  0  0  0  0  0  0  0  0  0
   -1.6080   -3.2310  -18.1280 C   0  0  0  0  0  0  0  0  0  0  0  0
  -10.4500   -2.1860  -17.0170 O   0  0  0  0  0  0  0  0  0  0  0  0
   -2.4300   -3.7640  -17.1980 C   0  0  0  0  0  0  0  0  0  0  0  0
   -7.1910   -1.2610  -18.1100 C   0  0  0  0  0  0  0  0  0  0  0  0
   -0.9780   -1.4170  -19.4610 C   0  0  0  0  0  0  0  0  0  0  0  0
   -9.2140   -0.3790  -18.4420 F   0  0  0  0  0  0  0  0  0  0  0  0
   -6.6900   -0.4810  -19.1460 F   0  0  0  0  0  0  0  0  0  0  0  0
   -6.9550   -2.9820  -16.4400 C   0  0  0  0  0  0  0  0  0  0  0  0
   -1.4170   -0.4640  -20.1500 O   0  0  0  0  0  0  0  0  0  0  0  0
   -1.8090   -1.9470  -18.3480 C   0  0  0  0  0  0  0  0  0  0  0  0
   -2.7560   -1.1740  -17.5610 C   0  0  0  0  0  0  0  0  0  0  0  0
  1  7  1  6
  1  2  1  0
  3  7  1  0
  3 18  1  0
  5 15  1  0
  6  8  2  0
  8 12  1  0
  8  9  1  0
  9 18  2  0
  9  4  1  0
 11 13  1  0
 13  2  2  0
 14  6  1  0
 14  3  2  0
 16  6  1  0
 17 14  1  0
 18 10  1  0
 19 15  2  0
 20 15  1  0
 20 11  1  0
 20 21  1  0
 21  1  1  0
M  END
>  <rank>  (1) 
12

>  <composite_score>  (1) 
0.6009

>  <smiles>  (1) 
CC(=O)C1CC=CC(Cc2c(O)c(O)c(O)c(F)c2F)C1

$$$$
