3pbq_imipenem_iter1_filtered_264
     RDKit          3D

 19 20  0  0  0  0  0  0  0  0999 V2000
   -7.5070   -3.0930  -15.8000 C   0  0  0  0  0  0  0  0  0  0  0  0
   -2.7960   -0.9780  -19.0160 C   0  0  0  0  0  0  0  0  0  0  0  0
   -3.3830   -1.9610  -18.1610 C   0  0  1  0  0  0  0  0  0  0  0  0
   -2.7200   -2.9330  -17.3640 C   0  0  0  0  0  0  0  0  0  0  0  0
   -7.0850   -3.6880  -14.8660 O   0  0  0  0  0  0  0  0  0  0  0  0
   -6.6620   -2.5200  -16.8320 C   0  0  0  0  0  0  0  0  0  0  0  0
   -5.3600   -2.5410  -16.9300 C   0  0  0  0  0  0  0  0  0  0  0  0
   -8.8410   -2.9020  -16.2220 N   0  0  0  0  0  0  0  0  0  0  0  0
   -1.2900   -0.9020  -19.2010 C   0  0  0  0  0  0  0  0  0  0  0  0
   -4.7810   -1.8460  -18.0890 C   0  0  0  0  0  0  0  0  0  0  0  0
   -8.5790   -1.5760  -18.1650 C   0  0  0  0  0  0  0  0  0  0  0  0
   -7.1110   -1.7850  -18.0140 C   0  0  0  0  0  0  0  0  0  0  0  0
   -0.4920   -0.9410  -17.8420 C   0  0  0  0  0  0  0  0  0  0  0  0
   -6.0270   -1.2560  -18.7890 C   0  0  0  0  0  0  0  0  0  0  0  0
   -9.4870   -2.1620  -17.2180 C   0  0  0  0  0  0  0  0  0  0  0  0
   -2.1370   -3.1550  -16.2900 O   0  0  0  0  0  0  0  0  0  0  0  0
   -0.7880   -2.0880  -20.0320 C   0  0  0  0  0  0  0  0  0  0  0  0
   -4.6950   -2.9260  -15.9990 O   0  0  0  0  0  0  0  0  0  0  0  0
   -3.4030   -0.2810  -19.7640 O   0  0  0  0  0  0  0  0  0  0  0  0
  1  5  2  0
  2  3  1  0
  3 10  1  0
  3  4  1  1
  4 16  2  0
  6  1  1  0
  7  6  1  0
  7 18  2  0
  8  1  1  0
  9  2  1  0
  9 13  1  0
 10  7  1  0
 11 12  1  0
 11 15  1  0
 12  6  2  0
 14 10  2  0
 14 12  1  0
 15  8  2  0
 17  9  1  0
 19  2  2  0
M  END
>  <rank>  (1) 
41

>  <composite_score>  (1) 
0.5086

>  <smiles>  (1) 
CC(C)C(=O)C(C=O)C1=CC2=C(C(=O)N=CC2)C1=O

$$$$
