3pbq_imipenem_iter1_filtered_129
     RDKit          3D

 22 25  0  0  0  0  0  0  0  0999 V2000
   -8.6330   -1.0320  -17.4850 C   0  0  0  0  0  0  0  0  0  0  0  0
   -7.7020   -2.2390  -14.7320 O   0  0  0  0  0  0  0  0  0  0  0  0
   -7.3660   -4.4310  -15.3510 O   0  0  0  0  0  0  0  0  0  0  0  0
   -7.4890   -1.9220  -17.7920 C   0  0  2  0  0  0  0  0  0  0  0  0
   -2.9940   -0.3380  -18.0850 C   0  0  0  0  0  0  0  0  0  0  0  0
   -8.8890   -2.4370  -17.8710 C   0  0  1  0  0  0  0  0  0  0  0  0
   -6.8060   -2.6200  -16.8400 N   0  0  0  0  0  0  0  0  0  0  0  0
   -1.9960    0.6390  -18.0290 C   0  0  0  0  0  0  0  0  0  0  0  0
   -2.9350   -1.2460  -19.0700 C   0  0  0  0  0  0  0  0  0  0  0  0
   -9.1320   -3.4460  -16.7820 C   0  0  0  0  0  0  0  0  0  0  0  0
   -0.8460   -0.3800  -20.0220 C   0  0  0  0  0  0  0  0  0  0  0  0
   -4.0040   -0.6210  -17.0660 C   0  0  0  0  0  0  0  0  0  0  0  0
   -7.0330   -2.1530  -19.1750 C   0  0  0  0  0  0  0  0  0  0  0  0
   -5.5200   -2.6870  -16.5580 C   0  0  0  0  0  0  0  0  0  0  0  0
   -4.3630   -1.9940  -17.5170 C   0  0  2  0  0  0  0  0  0  0  0  0
   -6.6040   -0.8370  -19.8190 O   0  0  0  0  0  0  0  0  0  0  0  0
   -1.8220   -1.4500  -19.9300 C   0  0  0  0  0  0  0  0  0  0  0  0
   -7.7600   -3.2290  -15.7860 S   0  0  0  0  0  0  0  0  0  0  0  0
   -3.3110   -2.9490  -16.9700 C   0  0  0  0  0  0  0  0  0  0  0  0
    0.0520    1.7680  -19.2610 C   0  0  0  0  0  0  0  0  0  0  0  0
   -0.9480    0.6700  -19.1380 C   0  0  0  0  0  0  0  0  0  0  0  0
   -4.0170   -2.0460  -19.0290 C   0  0  0  0  0  0  0  0  0  0  0  0
  4 13  1  6
  4  1  1  0
  4  7  1  0
  5  8  2  0
  5 12  1  0
  6  4  1  0
  6  1  1  1
  6 10  1  0
  7 14  1  0
  7 18  1  0
  9 22  1  0
  9  5  1  0
 18 10  1  0
 11 17  1  0
 11 21  2  0
 15 12  1  0
 15 19  1  1
 15 14  1  0
 16 13  1  0
 17  9  2  0
 18  3  2  0
 18  2  2  0
 20 21  1  0
 21  8  1  0
 22 15  1  0
M  END
>  <rank>  (1) 
29

>  <composite_score>  (1) 
0.5368

>  <smiles>  (1) 
Cc1ccc2c(c1)CC(C)(CN1C3(CO)CC3CS1(=O)=O)C2

$$$$
