3pbq_imipenem_iter1_filtered_19
 OpenBabel12042511063D

 21 24  0  0  0  0  0  0  0  0999 V2000
   -6.2890   -1.6940  -17.8500 C   0  0  0  0  0  0  0  0  0  0  0  0
   -2.7310   -2.0070  -17.2790 C   0  0  0  0  0  0  0  0  0  0  0  0
   -7.9820   -3.3940  -15.1120 N   0  0  0  0  0  0  0  0  0  0  0  0
   -4.0260   -1.7370  -17.7710 C   0  0  0  0  0  0  0  0  0  0  0  0
    0.6820   -0.8770  -17.8410 C   0  0  0  0  0  0  0  0  0  0  0  0
   -3.0850   -0.5550  -19.4950 N   0  0  0  0  0  0  0  0  0  0  0  0
   -1.6100   -1.4580  -17.9200 C   0  0  0  0  0  0  0  0  0  0  0  0
   -2.5340   -4.3770  -16.7710 C   0  0  0  0  0  0  0  0  0  0  0  0
   -7.1790   -2.8180  -16.0480 C   0  0  0  0  0  0  0  0  0  0  0  0
   -3.2950   -2.6050  -15.1590 O   0  0  0  0  0  0  0  0  0  0  0  0
   -8.6350   -1.7390  -17.4560 F   0  0  0  0  0  0  0  0  0  0  0  0
   -5.6500   -2.9280  -15.8670 S   0  0  0  0  0  0  0  0  0  0  0  0
   -4.1880   -1.0390  -18.8570 C   0  0  0  0  0  0  0  0  0  0  0  0
    0.4680   -0.0890  -18.9650 C   0  0  0  0  0  0  0  0  0  0  0  0
   -7.3370   -2.0890  -17.2360 C   0  0  0  0  0  0  0  0  0  0  0  0
   -2.5400   -2.9170  -16.2640 C   0  0  2  0  0  0  0  0  0  0  0  0
   -5.8800   -0.9410  -19.2350 S   0  0  0  0  0  0  0  0  0  0  0  0
   -0.2680   -1.7450  -17.4360 C   0  0  0  0  0  0  0  0  0  0  0  0
   -0.7540   -0.0020  -19.6220 C   0  0  0  0  0  0  0  0  0  0  0  0
   -1.8560   -0.7100  -19.0500 C   0  0  0  0  0  0  0  0  0  0  0  0
   -5.1780   -2.1510  -17.1540 C   0  0  0  0  0  0  0  0  0  0  0  0
  1 15  1  0  0  0  0
  1 21  2  0  0  0  0
  2 16  1  0  0  0  0
  4  2  2  0  0  0  0
  4 21  1  0  0  0  0
  5 18  1  0  0  0  0
  6 20  1  0  0  0  0
  6 13  2  0  0  0  0
  7 18  2  0  0  0  0
  7  2  1  0  0  0  0
  9 12  1  0  0  0  0
  9  3  1  0  0  0  0
 11 15  1  0  0  0  0
 13  4  1  0  0  0  0
 14  5  2  0  0  0  0
 15  9  2  0  0  0  0
 16  8  1  6  0  0  0
 16 10  1  0  0  0  0
 17 13  1  0  0  0  0
 17  1  1  0  0  0  0
 19 20  2  0  0  0  0
 19 14  1  0  0  0  0
 20  7  1  0  0  0  0
 21 12  1  0  0  0  0
M  END
>  <rank>
1

>  <composite_score>
0.6970

>  <smiles>
CC(O)c1c2ccccc2nc2sc3c(F)c(N)sc3c12

$$$$
