3pbq_imipenem_iter1_filtered_287
 OpenBabel12042511063D

 19 23  0  0  0  0  0  0  0  0999 V2000
   -1.6790   -1.5120  -17.9960 C   0  0  0  0  0  0  0  0  0  0  0  0
   -3.8650   -2.1860  -17.3810 C   0  0  0  0  0  0  0  0  0  0  0  0
   -2.9760   -1.5740  -18.2580 C   0  0  0  0  0  0  0  0  0  0  0  0
   -7.8730   -2.8560  -16.2710 C   0  0  0  0  0  0  0  0  0  0  0  0
   -5.2040   -1.9220  -17.8960 C   0  0  0  0  0  0  0  0  0  0  0  0
   -6.2420   -3.4980  -15.3750 N   0  0  0  0  0  0  0  0  0  0  0  0
   -7.4190   -0.8410  -18.9860 C   0  0  0  0  0  0  0  0  0  0  0  0
   -5.1160   -1.1120  -19.0020 C   0  0  0  0  0  0  0  0  0  0  0  0
   -9.0570   -2.2180  -17.2340 S   0  0  0  0  0  0  0  0  0  0  0  0
   -3.7650   -1.0310  -19.2710 N   0  0  0  0  0  0  0  0  0  0  0  0
   -7.2780   -4.1280  -14.8820 N   0  0  0  0  0  0  0  0  0  0  0  0
   -3.4350   -2.7950  -16.3240 C   0  0  0  0  0  0  0  0  0  0  0  0
   -6.1820   -0.5770  -19.5860 C   0  0  0  0  0  0  0  0  0  0  0  0
   -6.3730   -2.2390  -17.4220 C   0  0  0  0  0  0  0  0  0  0  0  0
   -1.3980   -1.6450  -16.5500 C   0  0  0  0  0  0  0  0  0  0  0  0
   -6.7350   -2.8220  -16.3730 C   0  0  0  0  0  0  0  0  0  0  0  0
   -8.1940   -4.0040  -15.4770 C   0  0  0  0  0  0  0  0  0  0  0  0
   -7.5730   -1.6580  -18.0330 C   0  0  0  0  0  0  0  0  0  0  0  0
   -2.1180   -2.4780  -15.8660 C   0  0  0  0  0  0  0  0  0  0  0  0
  1 15  1  0  0  0  0
  2 12  1  0  0  0  0
  3  1  1  0  0  0  0
  3  2  2  0  0  0  0
  4 17  1  0  0  0  0
  5 14  2  0  0  0  0
  5  2  1  0  0  0  0
  6 11  1  0  0  0  0
  7 18  2  0  0  0  0
  8  5  1  0  0  0  0
  9  4  1  0  0  0  0
 10  8  2  0  0  0  0
 10  3  1  0  0  0  0
 12 19  2  0  0  0  0
 13  8  1  0  0  0  0
 13  7  1  0  0  0  0
 14 16  1  0  0  0  0
 15 19  1  0  0  0  0
 16  4  2  0  0  0  0
 16  6  1  0  0  0  0
 17 11  1  0  0  0  0
 18 14  1  0  0  0  0
 18  9  1  0  0  0  0
M  END
>  <rank>
3

>  <composite_score>
0.6335

>  <smiles>
C1=CC2=C(CC1)N=C1CC=c3sc4c(c3=C12)NNC4

$$$$
