3pbq_imipenem_iter1_filtered_194
 OpenBabel12042511063D

 17 18  0  0  0  0  0  0  0  0999 V2000
   -7.1650   -1.0030  -19.3920 F   0  0  0  0  0  0  0  0  0  0  0  0
   -5.1430   -3.3590  -15.9630 O   0  0  0  0  0  0  0  0  0  0  0  0
   -5.1390   -0.9790  -17.6880 N   0  0  0  0  0  0  0  0  0  0  0  0
   -7.5020   -3.1290  -15.9390 C   0  0  0  0  0  0  0  0  0  0  0  0
   -7.3360   -1.5100  -18.2030 C   0  0  0  0  0  0  0  0  0  0  0  0
   -1.4340   -0.4320  -18.2780 C   0  0  0  0  0  0  0  0  0  0  0  0
   -3.8830   -1.0790  -17.8190 C   0  0  0  0  0  0  0  0  0  0  0  0
   -3.5800   -1.0420  -19.1390 C   0  0  0  0  0  0  0  0  0  0  0  0
   -0.3610   -0.3850  -16.1490 C   0  0  0  0  0  0  0  0  0  0  0  0
   -6.2400   -1.7960  -17.4030 C   0  0  0  0  0  0  0  0  0  0  0  0
   -8.6170   -1.8500  -17.6630 C   0  0  0  0  0  0  0  0  0  0  0  0
   -1.5180   -0.7240  -16.7670 C   0  0  0  0  0  0  0  0  0  0  0  0
   -8.6120   -2.5860  -16.5690 C   0  0  0  0  0  0  0  0  0  0  0  0
   -2.2920   -0.6750  -19.2990 C   0  0  0  0  0  0  0  0  0  0  0  0
   -7.5120   -4.0070  -14.9190 O   0  0  0  0  0  0  0  0  0  0  0  0
   -2.9800   -0.9650  -16.8530 C   0  0  0  0  0  0  0  0  0  0  0  0
   -6.2580   -2.7210  -16.4400 C   0  0  0  0  0  0  0  0  0  0  0  0
  1  5  1  0  0  0  0
  3 10  1  0  0  0  0
  4 15  1  0  0  0  0
  5 11  2  0  0  0  0
  5 10  1  0  0  0  0
  6 12  2  0  0  0  0
  7  3  1  0  0  0  0
  7 16  2  0  0  0  0
  8  7  1  0  0  0  0
 10 17  2  0  0  0  0
 11 13  1  0  0  0  0
 12  9  1  0  0  0  0
 13  4  2  0  0  0  0
 14  8  2  0  0  0  0
 14  6  1  0  0  0  0
 16 12  1  0  0  0  0
 17  2  1  0  0  0  0
 17  4  1  0  0  0  0
M  END
>  <rank>
7

>  <composite_score>
0.6222

>  <smiles>
Cc1cccc(Nc2c(F)ccc(O)c2O)c1

$$$$
