3pbq_imipenem_iter1_filtered_37
 OpenBabel12042511063D

 22 24  0  0  0  0  0  0  0  0999 V2000
   -9.5020   -4.4290  -16.9810 N   0  0  0  0  0  0  0  0  0  0  0  0
   -5.7720   -3.1960  -15.3500 N   0  0  0  0  0  0  0  0  0  0  0  0
   -2.4820   -3.2630  -15.8680 C   0  0  0  0  0  0  0  0  0  0  0  0
   -1.8190   -0.9650  -19.7740 C   0  0  0  0  0  0  0  0  0  0  0  0
   -9.7360   -2.0050  -17.4340 O   0  0  0  0  0  0  0  0  0  0  0  0
   -1.7400   -1.0090  -17.1050 C   0  0  1  0  0  0  0  0  0  0  0  0
   -5.4990   -2.3350  -16.4060 C   0  0  2  0  0  0  0  0  0  0  0  0
   -2.7460   -1.7650  -16.1340 C   0  0  1  0  0  0  0  0  0  0  0  0
   -6.5540   -1.7640  -18.4660 N   0  0  0  0  0  0  0  0  0  0  0  0
   -6.6320   -2.2970  -17.2430 C   0  0  0  0  0  0  0  0  0  0  0  0
   -2.7830   -0.6060  -20.6950 F   0  0  0  0  0  0  0  0  0  0  0  0
   -4.0160   -1.5290  -18.2680 C   0  0  1  0  0  0  0  0  0  0  0  0
   -1.5890    0.2350  -16.5250 F   0  0  0  0  0  0  0  0  0  0  0  0
   -9.1040   -3.0780  -16.8930 C   0  0  0  0  0  0  0  0  0  0  0  0
   -0.4800   -1.4710  -17.2810 O   0  0  0  0  0  0  0  0  0  0  0  0
   -4.2470   -1.5630  -16.7600 C   0  0  1  0  0  0  0  0  0  0  0  0
   -7.1430   -3.4940  -15.4670 N   0  0  0  0  0  0  0  0  0  0  0  0
   -0.9820    0.2150  -19.7530 F   0  0  0  0  0  0  0  0  0  0  0  0
   -7.6720   -2.9360  -16.4660 C   0  0  0  0  0  0  0  0  0  0  0  0
   -5.3130   -1.4030  -19.1330 C   0  0  0  0  0  0  0  0  0  0  0  0
   -1.0210   -1.7240  -20.4710 F   0  0  0  0  0  0  0  0  0  0  0  0
   -2.6500   -0.8570  -18.3560 C   0  0  2  0  0  0  0  0  0  0  0  0
  1 14  1  0  0  0  0
  4 18  1  0  0  0  0
  5 14  2  0  0  0  0
  6 15  1  6  0  0  0
  6 13  1  0  0  0  0
  6  8  1  0  0  0  0
  7 10  1  6  0  0  0
  7  2  1  0  0  0  0
  8  3  1  6  0  0  0
  9 10  1  0  0  0  0
 10 19  2  0  0  0  0
 11  4  1  0  0  0  0
 12 20  1  6  0  0  0
 12 16  1  0  0  0  0
 14 19  1  0  0  0  0
 16  7  1  0  0  0  0
 16  8  1  0  0  0  0
 17  2  1  0  0  0  0
 19 17  1  0  0  0  0
 20  9  2  0  0  0  0
 21  4  1  0  0  0  0
 22  4  1  0  0  0  0
 22 12  1  0  0  0  0
 22  6  1  0  0  0  0
M  END
>  <rank>
44

>  <composite_score>
0.5033

>  <smiles>
CC1C2C3NNC(C(N)=O)=C3N=CC2C(C(F)(F)F)C1(O)F

$$$$
