3pbq_imipenem_iter1_filtered_187
 OpenBabel12042511063D

 19 21  0  0  0  0  0  0  0  0999 V2000
   -1.7740   -1.6800  -18.5290 C   0  0  0  0  0  0  0  0  0  0  0  0
   -0.3390   -2.0790  -18.9660 C   0  0  2  0  0  0  0  0  0  0  0  0
   -8.3480   -2.5710  -16.8480 C   0  0  0  0  0  0  0  0  0  0  0  0
   -8.2390   -3.1910  -15.6780 N   0  0  0  0  0  0  0  0  0  0  0  0
   -4.6910   -2.1240  -17.5690 C   0  0  0  0  0  0  0  0  0  0  0  0
   -3.7050   -0.7740  -19.6170 C   0  0  0  0  0  0  0  0  0  0  0  0
   -4.8080   -1.3470  -18.8290 C   0  0  0  0  0  0  0  0  0  0  0  0
    0.1730   -1.6200  -17.7700 F   0  0  0  0  0  0  0  0  0  0  0  0
   -5.9960   -3.0900  -15.7440 C   0  0  0  0  0  0  0  0  0  0  0  0
   -6.0640   -1.0730  -19.4450 C   0  0  0  0  0  0  0  0  0  0  0  0
    0.0980   -0.9470  -20.0530 C   0  0  0  0  0  0  0  0  0  0  0  0
   -5.8910   -2.4450  -16.9780 C   0  0  0  0  0  0  0  0  0  0  0  0
   -7.0700   -3.4980  -15.1170 N   0  0  0  0  0  0  0  0  0  0  0  0
   -3.5070   -2.5010  -17.1050 N   0  0  0  0  0  0  0  0  0  0  0  0
   -7.1890   -2.1930  -17.5500 C   0  0  2  0  0  0  0  0  0  0  0  0
   -2.3310   -2.3380  -17.5380 C   0  0  0  0  0  0  0  0  0  0  0  0
   -7.2540   -1.4920  -18.7570 C   0  0  0  0  0  0  0  0  0  0  0  0
   -2.5760   -0.9520  -19.3830 C   0  0  0  0  0  0  0  0  0  0  0  0
   -0.4100   -1.3960  -21.4090 O   0  0  0  0  0  0  0  0  0  0  0  0
  1 16  1  0  0  0  0
  2  1  1  0  0  0  0
  2  8  1  1  0  0  0
  3  4  2  0  0  0  0
  4 13  1  0  0  0  0
  5 14  1  0  0  0  0
  5 12  2  0  0  0  0
  6 18  1  0  0  0  0
  6  7  2  0  0  0  0
  7  5  1  0  0  0  0
  9 13  2  0  0  0  0
 10  7  1  0  0  0  0
 10 17  2  0  0  0  0
 11  2  1  0  0  0  0
 12  9  1  0  0  0  0
 15 17  1  1  0  0  0
 15 12  1  0  0  0  0
 15  3  1  0  0  0  0
 16 14  2  0  0  0  0
 18  1  2  0  0  0  0
 19 11  1  0  0  0  0
M  END
>  <rank>
18

>  <composite_score>
0.5731

>  <smiles>
OCC(F)C1=CC=C2C=CC3C=NN=CC3=C2N=C1

$$$$
