3pbq_imipenem_iter1_filtered_324
 OpenBabel12042511063D

 20 22  0  0  0  0  0  0  0  0999 V2000
   -7.2930   -1.8570  -17.5540 C   0  0  0  0  0  0  0  0  0  0  0  0
   -8.1430   -4.1300  -15.2410 C   0  0  0  0  0  0  0  0  0  0  0  0
   -0.6040   -2.7660  -15.6510 O   0  0  0  0  0  0  0  0  0  0  0  0
   -1.8970   -1.9590  -18.7940 C   0  0  0  0  0  0  0  0  0  0  0  0
   -5.2560   -1.4600  -18.7660 C   0  0  0  0  0  0  0  0  0  0  0  0
   -0.3100   -0.7940  -18.1160 C   0  0  0  0  0  0  0  0  0  0  0  0
   -1.2740   -2.4000  -16.5840 C   0  0  0  0  0  0  0  0  0  0  0  0
   -1.3860    0.2480  -17.8980 C   0  0  0  0  0  0  0  0  0  0  0  0
   -5.8020   -3.9810  -15.0710 N   0  0  0  0  0  0  0  0  0  0  0  0
   -6.8940   -3.5070  -15.5360 C   0  0  1  0  0  0  0  0  0  0  0  0
   -2.9230   -2.5900  -17.9660 C   0  0  1  0  0  0  0  0  0  0  0  0
   -4.7770   -3.3630  -15.6680 N   0  0  0  0  0  0  0  0  0  0  0  0
   -2.5650   -2.7070  -16.7700 O   0  0  0  0  0  0  0  0  0  0  0  0
   -5.1420   -2.6210  -16.6570 C   0  0  0  0  0  0  0  0  0  0  0  0
   -4.3330   -1.8900  -17.6720 C   0  0  2  0  0  0  0  0  0  0  0  0
   -6.6060   -2.6470  -16.6520 C   0  0  0  0  0  0  0  0  0  0  0  0
   -0.6160   -2.0490  -17.9010 C   0  0  1  0  0  0  0  0  0  0  0  0
    0.6850   -0.3530  -19.1310 C   0  0  0  0  0  0  0  0  0  0  0  0
   -8.8350   -1.6640  -17.5770 C   0  0  0  0  0  0  0  0  0  0  0  0
   -6.5610   -1.2870  -18.5710 N   0  0  0  0  0  0  0  0  0  0  0  0
  1 16  1  0  0  0  0
  5 20  1  0  0  0  0
  6  8  1  0  0  0  0
  7  3  2  0  0  0  0
 10  2  1  6  0  0  0
 10  9  1  0  0  0  0
 11  4  1  6  0  0  0
 11 15  1  0  0  0  0
 11 13  1  0  0  0  0
 12  9  2  0  0  0  0
 13  7  1  0  0  0  0
 14 16  2  0  0  0  0
 14 12  1  0  0  0  0
 15  5  1  6  0  0  0
 15 14  1  0  0  0  0
 16 10  1  0  0  0  0
 17  4  1  0  0  0  0
 17  6  1  1  0  0  0
 17  7  1  0  0  0  0
 18  6  1  0  0  0  0
 19  1  1  0  0  0  0
 20  1  2  0  0  0  0
M  END
>  <rank>
43

>  <composite_score>
0.5038

>  <smiles>
CC1=NCC(C2CC(C(C)C)C(=O)O2)C2=C1C(C)N=N2

$$$$
