3pbq_imipenem_iter1_filtered_86
 OpenBabel12042511063D

 20 21  0  0  0  0  0  0  0  0999 V2000
   -5.1320   -1.5990  -18.5160 C   0  0  0  0  0  0  0  0  0  0  0  0
   -3.6120   -2.5150  -14.9900 N   0  0  0  0  0  0  0  0  0  0  0  0
   -3.6920   -1.5570  -18.3460 C   0  0  1  0  0  0  0  0  0  0  0  0
   -5.7520   -2.5540  -16.3190 C   0  0  0  0  0  0  0  0  0  0  0  0
   -1.7800   -0.7370  -17.4260 C   0  0  0  0  0  0  0  0  0  0  0  0
   -2.3500   -1.8190  -17.7270 C   0  0  0  0  0  0  0  0  0  0  0  0
   -0.5320   -0.7590  -16.5980 C   0  0  0  0  0  0  0  0  0  0  0  0
   -1.9790   -2.9300  -17.2260 C   0  0  0  0  0  0  0  0  0  0  0  0
   -7.3540   -2.0320  -17.9070 C   0  0  0  0  0  0  0  0  0  0  0  0
    0.1860   -1.9300  -16.4570 C   0  0  0  0  0  0  0  0  0  0  0  0
   -5.3660   -1.0900  -19.6930 O   0  0  0  0  0  0  0  0  0  0  0  0
   -3.3790   -0.9140  -19.4910 C   0  0  0  0  0  0  0  0  0  0  0  0
   -8.2940   -2.7510  -17.0600 C   0  0  0  0  0  0  0  0  0  0  0  0
   -6.0810   -2.0650  -17.5700 C   0  0  0  0  0  0  0  0  0  0  0  0
   -6.6300   -3.2810  -15.5760 N   0  0  0  0  0  0  0  0  0  0  0  0
   -4.4600   -2.4930  -15.6310 C   0  0  0  0  0  0  0  0  0  0  0  0
   -8.5870   -4.3000  -15.3640 O   0  0  0  0  0  0  0  0  0  0  0  0
   -0.8310   -2.9500  -16.3850 C   0  0  0  0  0  0  0  0  0  0  0  0
   -2.5060   -0.4630  -20.3520 C   0  0  0  0  0  0  0  0  0  0  0  0
   -7.8410   -3.4240  -15.9690 C   0  0  0  0  0  0  0  0  0  0  0  0
  1  3  1  0  0  0  0
  1 14  2  3  0  0  0
  3 12  1  6  0  0  0
  3  6  1  0  0  0  0
  4 16  1  0  0  0  0
  4 15  2  0  0  0  0
  5  7  1  0  0  0  0
  6  5  2  0  0  0  0
  6  8  1  0  0  0  0
  7 10  1  0  0  0  0
  8 18  1  0  0  0  0
  9 14  1  0  0  0  0
  9 13  2  0  0  0  0
 10 18  1  0  0  0  0
 11  1  1  0  0  0  0
 13 20  1  0  0  0  0
 14  4  1  0  0  0  0
 16  2  3  0  0  0  0
 19 12  2  0  0  0  0
 20 15  1  0  0  0  0
 20 17  2  0  0  0  0
M  END
>  <rank>
23

>  <composite_score>
0.5470

>  <smiles>
C=CC(C1=CCCCC1)C(O)=C1C=CC(=O)N=C1C#N

$$$$
