3pbq_imipenem_iter1_filtered_232
 OpenBabel12042511063D

 21 24  0  0  0  0  0  0  0  0999 V2000
   -2.3110    0.3210  -20.3760 C   0  0  0  0  0  0  0  0  0  0  0  0
   -3.3940   -1.1370  -18.7830 C   0  0  0  0  0  0  0  0  0  0  0  0
   -2.1710   -0.7210  -18.2870 C   0  0  0  0  0  0  0  0  0  0  0  0
   -8.3920   -0.7570  -18.1340 O   0  0  0  0  0  0  0  0  0  0  0  0
   -3.9190   -0.3780  -20.2910 S   0  0  0  0  0  0  0  0  0  0  0  0
   -9.5280   -4.7270  -17.7370 O   0  0  0  0  0  0  0  0  0  0  0  0
   -7.6130   -1.9850  -18.0760 C   0  0  2  0  0  0  0  0  0  0  0  0
   -7.6260   -3.0590  -19.1120 N   0  0  0  0  0  0  0  0  0  0  0  0
   -7.7950   -4.1000  -14.8840 C   0  0  0  0  0  0  0  0  0  0  0  0
   -4.2040   -2.0810  -18.1580 C   0  0  0  0  0  0  0  0  0  0  0  0
   -3.9080   -2.4950  -16.8550 C   0  0  0  0  0  0  0  0  0  0  0  0
   -9.3390   -3.9210  -16.8530 C   0  0  0  0  0  0  0  0  0  0  0  0
   -2.6710   -2.0140  -16.3100 C   0  0  0  0  0  0  0  0  0  0  0  0
   -9.5720   -2.4170  -15.9750 C   0  0  0  0  0  0  0  0  0  0  0  0
   -7.2030   -2.3960  -16.6610 C   0  0  0  0  0  0  0  0  0  0  0  0
   -8.2790   -3.2600  -16.0290 C   0  0  1  0  0  0  0  0  0  0  0  0
   -1.8810   -1.1120  -16.9700 C   0  0  0  0  0  0  0  0  0  0  0  0
   -1.3560    0.1110  -19.2470 C   0  0  0  0  0  0  0  0  0  0  0  0
   -2.2430   -2.5350  -14.6960 Cl  0  0  0  0  0  0  0  0  0  0  0  0
   -5.2950   -2.5170  -18.9270 O   0  0  0  0  0  0  0  0  0  0  0  0
   -6.5650   -2.0710  -19.1780 C   0  0  2  0  0  0  0  0  0  0  0  0
  1  5  1  0  0  0  0
  1 18  2  0  0  0  0
  2  3  2  0  0  0  0
  2 10  1  0  0  0  0
  3 17  1  0  0  0  0
  5  2  1  0  0  0  0
  6 12  2  0  0  0  0
  7  4  1  6  0  0  0
  7 15  1  0  0  0  0
  8  7  1  0  0  0  0
 10 11  2  0  0  0  0
 11 13  1  0  0  0  0
 12 16  1  0  0  0  0
 12 14  1  0  0  0  0
 13 19  1  0  0  0  0
 15 16  1  0  0  0  0
 16 14  1  0  0  0  0
 16  9  1  1  0  0  0
 17 13  2  0  0  0  0
 18  3  1  0  0  0  0
 20 10  1  0  0  0  0
 21  8  1  0  0  0  0
 21 20  1  1  0  0  0
 21  7  1  0  0  0  0
M  END
>  <rank>
2

>  <composite_score>
0.6367

>  <smiles>
CC1(CC2(O)NC2Oc2cc(Cl)cc3ccsc23)CC1=O

$$$$
