3pbq_imipenem_iter1_filtered_65
 OpenBabel12042511063D

 19 20  0  0  0  0  0  0  0  0999 V2000
   -1.6280   -1.0390  -20.2070 O   0  0  0  0  0  0  0  0  0  0  0  0
   -6.3210   -1.5350  -18.2920 C   0  0  0  0  0  0  0  0  0  0  0  0
   -1.3290   -1.4290  -17.8800 C   0  0  0  0  0  0  0  0  0  0  0  0
   -5.4440   -2.0110  -17.3870 C   0  0  0  0  0  0  0  0  0  0  0  0
   -7.7040   -3.6080  -14.9220 O   0  0  0  0  0  0  0  0  0  0  0  0
   -3.4990   -1.3350  -18.8290 C   0  0  0  0  0  0  0  0  0  0  0  0
   -3.1810   -1.9060  -16.4740 C   0  0  0  0  0  0  0  0  0  0  0  0
   -8.1210   -2.3400  -16.9500 C   0  0  0  0  0  0  0  0  0  0  0  0
   -4.0150   -1.7340  -17.5550 C   0  0  0  0  0  0  0  0  0  0  0  0
   -7.2300   -2.9590  -16.0690 C   0  0  0  0  0  0  0  0  0  0  0  0
   -2.0970   -1.2400  -18.9940 C   0  0  0  0  0  0  0  0  0  0  0  0
   -9.4970   -2.5120  -16.6890 O   0  0  0  0  0  0  0  0  0  0  0  0
   -5.9160   -0.9340  -19.4240 F   0  0  0  0  0  0  0  0  0  0  0  0
   -5.1050   -3.4400  -15.4000 F   0  0  0  0  0  0  0  0  0  0  0  0
   -5.9040   -2.7890  -16.3150 C   0  0  0  0  0  0  0  0  0  0  0  0
   -1.8540   -1.7020  -16.6120 C   0  0  0  0  0  0  0  0  0  0  0  0
   -0.2590   -1.5320  -20.5340 C   0  0  0  0  0  0  0  0  0  0  0  0
   -8.3400   -1.0710  -18.8100 F   0  0  0  0  0  0  0  0  0  0  0  0
   -7.6170   -1.6900  -17.9580 C   0  0  0  0  0  0  0  0  0  0  0  0
  1 11  1  0  0  0  0
  2 19  2  0  0  0  0
  2  4  1  0  0  0  0
  3 16  2  0  0  0  0
  4 15  2  0  0  0  0
  6  9  1  0  0  0  0
  8 12  1  0  0  0  0
  8 10  2  0  0  0  0
  9  4  1  0  0  0  0
  9  7  2  0  0  0  0
 10  5  1  0  0  0  0
 11  6  2  0  0  0  0
 11  3  1  0  0  0  0
 13  2  1  0  0  0  0
 15 10  1  0  0  0  0
 15 14  1  0  0  0  0
 16  7  1  0  0  0  0
 17  1  1  0  0  0  0
 18 19  1  0  0  0  0
 19  8  1  0  0  0  0
M  END
>  <rank>
15

>  <composite_score>
0.5928

>  <smiles>
COc1cccc(-c2c(F)c(O)c(O)c(F)c2F)c1

$$$$
