3pbq_imipenem_iter1_filtered_126
 OpenBabel12042511063D

 18 20  0  0  0  0  0  0  0  0999 V2000
   -6.3510   -2.2630  -16.9700 C   0  0  0  0  0  0  0  0  0  0  0  0
   -6.8050   -1.2760  -19.0430 C   0  0  0  0  0  0  0  0  0  0  0  0
   -1.9560   -1.0580  -18.5270 C   0  0  0  0  0  0  0  0  0  0  0  0
   -5.1190   -2.4320  -17.0860 C   0  0  0  0  0  0  0  0  0  0  0  0
   -2.9420   -1.8400  -17.7030 C   0  0  0  0  0  0  0  0  0  0  0  0
   -6.9010   -2.7100  -15.9700 C   0  0  0  0  0  0  0  0  0  0  0  0
   -2.6260   -2.5130  -16.4640 C   0  0  0  0  0  0  0  0  0  0  0  0
   -0.4440   -1.6090  -18.0640 C   0  0  0  0  0  0  0  0  0  0  0  0
   -3.9260   -0.5120  -19.8940 C   0  0  0  0  0  0  0  0  0  0  0  0
   -5.0800   -1.3190  -19.0760 C   0  0  0  0  0  0  0  0  0  0  0  0
   -7.0150   -1.5540  -18.1090 N   0  0  0  0  0  0  0  0  0  0  0  0
    0.8560   -3.0340  -16.5010 O   0  0  0  0  0  0  0  0  0  0  0  0
   -4.2580   -1.7420  -18.0520 C   0  0  0  0  0  0  0  0  0  0  0  0
   -1.3670   -2.6690  -15.9040 C   0  0  0  0  0  0  0  0  0  0  0  0
   -0.1930   -2.4230  -16.9010 C   0  0  0  0  0  0  0  0  0  0  0  0
   -7.6290   -3.2950  -15.4760 C   0  0  0  0  0  0  0  0  0  0  0  0
   -2.5370   -0.2250  -19.7380 C   0  0  0  0  0  0  0  0  0  0  0  0
   -6.8890   -0.7940  -20.1680 O   0  0  0  0  0  0  0  0  0  0  0  0
  1  6  1  0  0  0  0
  2 11  1  0  0  0  0
  3  8  1  0  0  0  0
  3  5  1  0  0  0  0
  4  1  1  0  0  0  0
  5  7  1  0  0  0  0
  6 16  2  0  0  0  0
  7 14  1  0  0  0  0
  8 15  1  0  0  0  0
  9 17  1  0  0  0  0
  9 10  2  0  0  0  0
 10  2  1  0  0  0  0
 10 13  1  0  0  0  0
 11  1  2  0  0  0  0
 13  5  2  0  0  0  0
 13  4  1  0  0  0  0
 15 12  2  0  0  0  0
 15 14  1  0  0  0  0
 17  3  2  0  0  0  0
 18  2  2  0  0  0  0
M  END
>  <rank>
38

>  <composite_score>
0.5159

>  <smiles>
C=CC1=NC(=O)c2ccc3c(c2C1)CCC(=O)C3

$$$$
