3pbq_imipenem_iter1_filtered_88
 OpenBabel12042511063D

 26 28  0  0  0  0  0  0  0  0999 V2000
   -1.6180   -1.1610  -19.1680 C   0  0  0  0  0  0  0  0  0  0  0  0
   -7.6290   -1.7540  -17.9690 C   0  0  0  0  0  0  0  0  0  0  0  0
   -2.4690   -4.3280  -15.8170 O   0  0  0  0  0  0  0  0  0  0  0  0
   -7.3440   -4.3970  -14.9310 O   0  0  0  0  0  0  0  0  0  0  0  0
   -3.0980   -1.1180  -19.0820 C   0  0  0  0  0  0  0  0  0  0  0  0
   -1.6920   -3.4420  -16.3250 C   0  0  0  0  0  0  0  0  0  0  0  0
   -8.4960   -2.9790  -16.1760 N   0  0  0  0  0  0  0  0  0  0  0  0
   -2.0830   -2.8770  -17.1650 C   0  0  2  0  0  0  0  0  0  0  0  0
   -4.4850    0.3440  -22.0400 N   0  0  0  0  0  0  0  0  0  0  0  0
   -6.2070   -3.0420  -16.4470 C   0  0  0  0  0  0  0  0  0  0  0  0
   -5.2550   -1.6480  -18.2920 C   0  0  0  0  0  0  0  0  0  0  0  0
   -0.9820   -2.0660  -17.9990 C   0  0  0  0  0  0  0  0  0  0  0  0
   -6.3180   -2.1510  -17.5330 C   0  0  0  0  0  0  0  0  0  0  0  0
   -1.4810   -1.9450  -20.6160 C   0  0  0  0  0  0  0  0  0  0  0  0
   -3.4690   -2.4670  -17.1570 O   0  0  0  0  0  0  0  0  0  0  0  0
   -9.9800   -1.3720  -17.3040 C   0  0  0  0  0  0  0  0  0  0  0  0
   -0.8480    0.0350  -19.4880 C   0  0  0  0  0  0  0  0  0  0  0  0
   -8.5920   -2.0790  -17.1430 C   0  0  0  0  0  0  0  0  0  0  0  0
   -4.0550   -0.6210  -19.8810 N   0  0  0  0  0  0  0  0  0  0  0  0
   -7.7590   -1.2220  -19.0550 O   0  0  0  0  0  0  0  0  0  0  0  0
   -5.3960   -0.9730  -19.3500 N   0  0  0  0  0  0  0  0  0  0  0  0
   -3.8890   -1.7490  -18.0490 C   0  0  0  0  0  0  0  0  0  0  0  0
   -7.3470   -3.5070  -15.7630 C   0  0  0  0  0  0  0  0  0  0  0  0
   -0.3110   -1.2410  -16.9720 C   0  0  0  0  0  0  0  0  0  0  0  0
   -4.1870   -0.0490  -21.0120 C   0  0  0  0  0  0  0  0  0  0  0  0
    0.0220   -3.1260  -18.5730 C   0  0  0  0  0  0  0  0  0  0  0  0
  1  5  1  0  0  0  0
  1 12  1  0  0  0  0
  1 14  1  0  0  0  0
  2 13  1  0  0  0  0
  2 18  1  0  0  0  0
  5 22  2  0  0  0  0
  6  3  2  0  0  0  0
  7 23  1  0  0  0  0
  8 15  1  0  0  0  0
  8  6  1  1  0  0  0
  9 25  3  0  0  0  0
 10 23  1  0  0  0  0
 11 22  1  0  0  0  0
 11 13  1  0  0  0  0
 12  8  1  0  0  0  0
 12 24  1  0  0  0  0
 13 10  2  0  0  0  0
 16 18  1  0  0  0  0
 17  1  1  0  0  0  0
 18  7  2  0  0  0  0
 19 21  1  0  0  0  0
 19  5  1  0  0  0  0
 20  2  2  0  0  0  0
 21 11  2  0  0  0  0
 22 15  1  0  0  0  0
 23  4  2  0  0  0  0
 25 19  1  0  0  0  0
 26 12  1  0  0  0  0
M  END
>  <rank>
20

>  <composite_score>
0.5648

>  <smiles>
CC1=NC(=O)C=C(c2nn(C#N)c3c2OC(C=O)C(C)(C)C3(C)C)C1=O

$$$$
