3pbq_imipenem_iter1_filtered_16
 OpenBabel12042511063D

 19 20  0  0  0  0  0  0  0  0999 V2000
   -7.5350   -1.9530  -17.8370 C   0  0  0  0  0  0  0  0  0  0  0  0
   -4.9060   -1.0520  -18.1540 C   0  0  0  0  0  0  0  0  0  0  0  0
   -0.7660   -3.1910  -17.7290 C   0  0  0  0  0  0  0  0  0  0  0  0
   -2.9480   -2.8040  -17.2830 C   0  0  0  0  0  0  0  0  0  0  0  0
   -1.8690   -3.5280  -16.8550 O   0  0  0  0  0  0  0  0  0  0  0  0
   -0.3620   -0.8240  -17.3910 C   0  0  0  0  0  0  0  0  0  0  0  0
   -2.5380   -1.7560  -18.1220 C   0  0  0  0  0  0  0  0  0  0  0  0
   -6.5160   -2.3400  -16.8470 N   0  0  0  0  0  0  0  0  0  0  0  0
  -10.0850   -0.6740  -17.1430 C   0  0  0  0  0  0  0  0  0  0  0  0
   -8.7950   -2.6170  -17.3960 C   0  0  0  0  0  0  0  0  0  0  0  0
   -9.5380   -1.8070  -16.4730 O   0  0  0  0  0  0  0  0  0  0  0  0
   -7.3760   -4.0680  -15.2680 O   0  0  0  0  0  0  0  0  0  0  0  0
   -6.9010   -2.6930  -15.4580 C   0  0  0  0  0  0  0  0  0  0  0  0
   -4.2070   -2.8750  -16.8320 C   0  0  0  0  0  0  0  0  0  0  0  0
   -3.5820   -0.9410  -18.5940 C   0  0  0  0  0  0  0  0  0  0  0  0
   -4.6600   -3.8330  -15.9120 F   0  0  0  0  0  0  0  0  0  0  0  0
   -5.1900   -2.0760  -17.2720 C   0  0  0  0  0  0  0  0  0  0  0  0
   -1.0770   -1.7890  -18.2770 C   0  0  0  0  0  0  0  0  0  0  0  0
   -0.6490   -1.6920  -19.7310 C   0  0  0  0  0  0  0  0  0  0  0  0
  1 10  1  0  0  0  0
  1  8  1  0  0  0  0
  2 17  2  0  0  0  0
  3  5  1  0  0  0  0
  4  5  1  0  0  0  0
  4 14  2  0  0  0  0
  7  4  1  0  0  0  0
  8 13  1  0  0  0  0
  9 11  1  0  0  0  0
 10 11  1  0  0  0  0
 13 12  1  0  0  0  0
 14 16  1  0  0  0  0
 15  2  1  0  0  0  0
 15  7  2  0  0  0  0
 17  8  1  0  0  0  0
 17 14  1  0  0  0  0
 18  7  1  0  0  0  0
 18  3  1  0  0  0  0
 18  6  1  0  0  0  0
 19 18  1  0  0  0  0
M  END
>  <rank>
39

>  <composite_score>
0.5127

>  <smiles>
COCCN(CO)c1ccc2c(c1F)OCC2(C)C

$$$$
