3pbq_imipenem_iter1_filtered_163
 OpenBabel12042511063D

 20 22  0  0  0  0  0  0  0  0999 V2000
   -2.3510   -0.8500  -17.3040 C   0  0  0  0  0  0  0  0  0  0  0  0
   -6.1920   -2.9860  -16.0320 C   0  0  0  0  0  0  0  0  0  0  0  0
   -5.0180   -3.2550  -15.3990 O   0  0  0  0  0  0  0  0  0  0  0  0
   -8.6050   -2.4400  -16.4410 C   0  0  0  0  0  0  0  0  0  0  0  0
   -3.1430   -0.4060  -19.7020 C   0  0  0  0  0  0  0  0  0  0  0  0
   -7.8510   -2.2780  -17.4080 C   0  0  0  0  0  0  0  0  0  0  0  0
   -4.5090   -1.6350  -18.0290 C   0  0  0  0  0  0  0  0  0  0  0  0
   -6.5360   -2.4430  -17.2530 C   0  0  2  0  0  0  0  0  0  0  0  0
   -4.3020   -1.1630  -19.4570 C   0  0  0  0  0  0  0  0  0  0  0  0
   -7.3120   -2.9620  -15.3210 N   0  0  0  0  0  0  0  0  0  0  0  0
   -2.2620   -0.1200  -18.6500 C   0  0  0  0  0  0  0  0  0  0  0  0
   -2.8880   -2.4780  -15.7290 C   0  0  0  0  0  0  0  0  0  0  0  0
   -6.0250   -3.1380  -19.1130 O   0  0  0  0  0  0  0  0  0  0  0  0
   -1.2650   -0.5910  -16.3500 F   0  0  0  0  0  0  0  0  0  0  0  0
   -3.3870   -1.4870  -16.8970 C   0  0  0  0  0  0  0  0  0  0  0  0
   -1.4740    0.9130  -18.8520 F   0  0  0  0  0  0  0  0  0  0  0  0
   -2.8580    0.3160  -20.6960 F   0  0  0  0  0  0  0  0  0  0  0  0
   -3.7630   -3.6910  -15.9850 C   0  0  0  0  0  0  0  0  0  0  0  0
   -8.0790   -1.6540  -18.6890 N   0  0  0  0  0  0  0  0  0  0  0  0
   -5.6740   -2.4210  -18.2040 N   0  0  0  0  0  0  0  0  0  0  0  0
  1 15  2  0  0  0  0
  1 14  1  0  0  0  0
  2  3  1  0  0  0  0
  2 10  2  0  0  0  0
  4 10  1  0  0  0  0
  5  9  1  0  0  0  0
  5 11  2  0  0  0  0
  6  4  2  0  0  0  0
  7 15  1  0  0  0  0
  8  6  1  6  0  0  0
  8  2  1  0  0  0  0
  8 20  1  0  0  0  0
  9  7  2  0  0  0  0
 11  1  1  0  0  0  0
 13 20  1  0  0  0  0
 15 12  1  0  0  0  0
 16 11  1  0  0  0  0
 17  5  1  0  0  0  0
 18 12  1  0  0  0  0
 18  3  1  0  0  0  0
 19  6  1  0  0  0  0
 20  7  1  0  0  0  0
M  END
>  <rank>
47

>  <composite_score>
0.4964

>  <smiles>
NC1=CN=C2OCCc3c(cc(F)c(F)c3F)N(O)C12

$$$$
