3pbq_imipenem_iter1_filtered_330
 OpenBabel12042511063D

 20 23  0  0  0  0  0  0  0  0999 V2000
   -7.5140   -3.7420  -15.0150 C   0  0  0  0  0  0  0  0  0  0  0  0
   -4.4730   -0.8230  -19.0060 C   0  0  0  0  0  0  0  0  0  0  0  0
   -3.9610   -1.6390  -16.8190 C   0  0  0  0  0  0  0  0  0  0  0  0
   -5.3480   -0.5810  -20.0170 O   0  0  0  0  0  0  0  0  0  0  0  0
   -8.6300   -3.3160  -15.8350 C   0  0  0  0  0  0  0  0  0  0  0  0
   -7.1610   -1.9160  -18.6710 C   0  0  0  0  0  0  0  0  0  0  0  0
   -4.8600   -1.4520  -17.8410 C   0  0  0  0  0  0  0  0  0  0  0  0
   -0.3540   -0.0790  -19.7560 C   0  0  0  0  0  0  0  0  0  0  0  0
   -3.1120   -0.4090  -19.2000 C   0  0  0  0  0  0  0  0  0  0  0  0
   -2.6480   -1.1590  -17.0270 C   0  0  0  0  0  0  0  0  0  0  0  0
   -0.8370   -0.1970  -18.2360 C   0  0  0  0  0  0  0  0  0  0  0  0
   -8.3580   -2.1300  -18.0950 N   0  0  0  0  0  0  0  0  0  0  0  0
   -6.1460   -1.9500  -17.7780 N   0  0  0  0  0  0  0  0  0  0  0  0
   -2.8520    0.2990  -20.4290 C   0  0  0  0  0  0  0  0  0  0  0  0
   -6.3440   -3.3290  -15.5760 N   0  0  0  0  0  0  0  0  0  0  0  0
   -6.6500   -2.5920  -16.6980 C   0  0  0  0  0  0  0  0  0  0  0  0
   -1.3610    0.5570  -20.6690 C   0  0  0  0  0  0  0  0  0  0  0  0
   -2.2350   -0.7440  -18.2630 C   0  0  0  0  0  0  0  0  0  0  0  0
   -7.1880   -1.8560  -19.9210 O   0  0  0  0  0  0  0  0  0  0  0  0
   -8.0260   -2.6190  -16.8570 C   0  0  0  0  0  0  0  0  0  0  0  0
  2  7  2  0  0  0  0
  4  2  1  0  0  0  0
  5  1  2  0  0  0  0
  6 12  1  0  0  0  0
  6 13  1  0  0  0  0
  7 13  1  0  0  0  0
  7  3  1  0  0  0  0
  8 11  1  0  0  0  0
  9  2  1  0  0  0  0
  9 18  2  0  0  0  0
 10  3  2  0  0  0  0
 12 20  2  0  0  0  0
 13 16  1  0  0  0  0
 14  9  1  0  0  0  0
 15  1  1  0  0  0  0
 16 15  2  0  0  0  0
 17 14  1  0  0  0  0
 17  8  1  0  0  0  0
 18 11  1  0  0  0  0
 18 10  1  0  0  0  0
 19  6  2  0  0  0  0
 20 16  1  0  0  0  0
 20  5  1  0  0  0  0
M  END
>  <rank>
8

>  <composite_score>
0.6171

>  <smiles>
O=C1N=C2C=CN=C2N1c1ccc2c(c1O)CCCC2

$$$$
