3pbq_imipenem_iter1_filtered_93
 OpenBabel12042511063D

 22 25  0  0  0  0  0  0  0  0999 V2000
   -2.4620   -0.8240  -19.7040 C   0  0  0  0  0  0  0  0  0  0  0  0
   -2.8880   -2.2150  -15.7900 O   0  0  0  0  0  0  0  0  0  0  0  0
   -3.8530   -1.1450  -19.0690 C   0  0  1  0  0  0  0  0  0  0  0  0
   -1.6290   -2.0730  -19.3810 C   0  0  1  0  0  0  0  0  0  0  0  0
   -0.1660   -1.8970  -19.6470 C   0  0  0  0  0  0  0  0  0  0  0  0
   -2.8620   -1.9920  -16.9720 C   0  0  0  0  0  0  0  0  0  0  0  0
   -3.9110   -1.1990  -17.5730 C   0  0  2  0  0  0  0  0  0  0  0  0
   -9.4350   -3.1130  -17.0920 C   0  0  0  0  0  0  0  0  0  0  0  0
   -7.2050   -3.5840  -15.4500 N   0  0  0  0  0  0  0  0  0  0  0  0
  -10.4960   -2.7820  -17.6790 O   0  0  0  0  0  0  0  0  0  0  0  0
   -6.2140   -1.8870  -16.9580 C   0  0  0  0  0  0  0  0  0  0  0  0
   -9.3040   -4.1500  -16.2420 N   0  0  0  0  0  0  0  0  0  0  0  0
   -8.2720   -4.3210  -15.4610 C   0  0  0  0  0  0  0  0  0  0  0  0
   -0.5050   -2.7450  -17.4760 C   0  0  0  0  0  0  0  0  0  0  0  0
    0.4270   -1.7560  -18.1770 C   0  0  0  0  0  0  0  0  0  0  0  0
   -8.0590   -1.2220  -17.9540 N   0  0  0  0  0  0  0  0  0  0  0  0
   -6.7580   -0.9360  -17.7790 N   0  0  0  0  0  0  0  0  0  0  0  0
   -1.8750   -2.3510  -17.8730 C   0  0  2  0  0  0  0  0  0  0  0  0
   -5.0000   -2.1380  -16.8850 N   0  0  0  0  0  0  0  0  0  0  0  0
   -4.5630   -0.1310  -20.0690 C   0  0  0  0  0  0  0  0  0  0  0  0
   -8.3240   -2.3150  -17.2500 C   0  0  0  0  0  0  0  0  0  0  0  0
   -7.2090   -2.6900  -16.4070 C   0  0  0  0  0  0  0  0  0  0  0  0
  1  3  1  0  0  0  0
  3 20  1  1  0  0  0
  3  7  1  0  0  0  0
  4  1  1  1  0  0  0
  4 18  1  0  0  0  0
  5  4  1  0  0  0  0
  5 15  1  0  0  0  0
  6  2  2  0  0  0  0
  7  6  1  0  0  0  0
  7 19  1  6  0  0  0
  8 12  1  0  0  0  0
 10  8  2  0  0  0  0
 11 19  1  0  0  0  0
 11 22  1  0  0  0  0
 12 13  2  0  0  0  0
 13  9  1  0  0  0  0
 15 14  1  0  0  0  0
 16 17  1  0  0  0  0
 16 21  2  0  0  0  0
 17 11  2  0  0  0  0
 18 14  1  1  0  0  0
 18  6  1  0  0  0  0
 21  8  1  0  0  0  0
 21 22  1  0  0  0  0
 22  9  2  0  0  0  0
M  END
>  <rank>
4

>  <composite_score>
0.6264

>  <smiles>
CC1CC2CCCC2C(=O)C1NC1=NN=C2C(=O)N=CN=C12

$$$$
