3pbq_imipenem_iter1_filtered_111
 OpenBabel12042511063D

 20 22  0  0  0  0  0  0  0  0999 V2000
   -5.2990   -2.4510  -16.6540 C   0  0  0  0  0  0  0  0  0  0  0  0
   -3.3620   -3.0060  -15.9850 N   0  0  0  0  0  0  0  0  0  0  0  0
   -0.1990   -1.6470  -19.8370 C   0  0  0  0  0  0  0  0  0  0  0  0
    0.6990   -1.9550  -20.9260 N   0  0  0  0  0  0  0  0  0  0  0  0
   -0.0340   -2.5270  -18.7430 C   0  0  0  0  0  0  0  0  0  0  0  0
   -8.5520   -1.2720  -17.9700 C   0  0  0  0  0  0  0  0  0  0  0  0
   -6.6610   -2.4080  -16.9300 C   0  0  0  0  0  0  0  0  0  0  0  0
   -8.8710   -3.2210  -16.5420 C   0  0  0  0  0  0  0  0  0  0  0  0
   -2.1660   -0.8690  -18.8570 C   0  0  0  0  0  0  0  0  0  0  0  0
   -1.0140   -2.5980  -17.7780 C   0  0  0  0  0  0  0  0  0  0  0  0
   -2.0930   -1.7690  -17.8480 C   0  0  0  0  0  0  0  0  0  0  0  0
   -7.2050   -1.4730  -17.8820 C   0  0  0  0  0  0  0  0  0  0  0  0
   -9.6610   -4.2630  -16.0920 O   0  0  0  0  0  0  0  0  0  0  0  0
   -4.6580   -0.6560  -17.9820 F   0  0  0  0  0  0  0  0  0  0  0  0
   -9.4060   -2.1500  -17.2680 C   0  0  0  0  0  0  0  0  0  0  0  0
   -1.1570   -0.7540  -19.8600 C   0  0  0  0  0  0  0  0  0  0  0  0
   -4.4310   -1.5950  -17.2300 C   0  0  0  0  0  0  0  0  0  0  0  0
   -7.5110   -3.2490  -16.2830 C   0  0  0  0  0  0  0  0  0  0  0  0
   -3.2380   -2.1130  -16.9620 C   0  0  1  0  0  0  0  0  0  0  0  0
   -4.6740   -3.2480  -15.8370 N   0  0  0  0  0  0  0  0  0  0  0  0
  1 20  1  0  0  0  0
  2 20  1  0  0  0  0
  3  5  2  0  0  0  0
  4  3  1  0  0  0  0
  5 10  1  0  0  0  0
  6 12  2  0  0  0  0
  6 15  1  0  0  0  0
  7  1  1  0  0  0  0
  7 18  2  0  0  0  0
  8 18  1  0  0  0  0
  8 13  1  0  0  0  0
  9 11  1  0  0  0  0
 11 10  2  0  0  0  0
 12  7  1  0  0  0  0
 14 17  1  0  0  0  0
 15  8  2  0  0  0  0
 16  3  1  0  0  0  0
 16  9  2  0  0  0  0
 17 19  1  0  0  0  0
 17  1  2  0  0  0  0
 19 11  1  6  0  0  0
 19  2  1  0  0  0  0
M  END
>  <rank>
14

>  <composite_score>
0.5949

>  <smiles>
Nc1ccc(C2NNC(c3cccc(O)c3)=C2F)cc1

$$$$
