3pbq_imipenem_iter1_filtered_160
 OpenBabel12042511063D

 19 21  0  0  0  0  0  0  0  0999 V2000
   -0.9130   -1.2960  -19.9390 C   0  0  0  0  0  0  0  0  0  0  0  0
   -4.8490   -3.1410  -15.2030 N   0  0  0  0  0  0  0  0  0  0  0  0
   -0.7900   -2.4850  -19.1970 N   0  0  0  0  0  0  0  0  0  0  0  0
   -8.0710   -2.1260  -17.7470 C   0  0  0  0  0  0  0  0  0  0  0  0
   -1.4970   -3.9210  -17.5330 O   0  0  0  0  0  0  0  0  0  0  0  0
   -5.2560   -2.2480  -17.2020 C   0  0  0  0  0  0  0  0  0  0  0  0
   -3.7030   -2.8330  -15.6230 C   0  0  0  0  0  0  0  0  0  0  0  0
   -3.8300   -2.3180  -16.9100 C   0  0  0  0  0  0  0  0  0  0  0  0
   -2.0810   -0.4950  -19.7860 C   0  0  0  0  0  0  0  0  0  0  0  0
   -2.7920   -2.0210  -17.9070 C   0  0  0  0  0  0  0  0  0  0  0  0
   -5.8010   -1.7140  -18.3270 C   0  0  0  0  0  0  0  0  0  0  0  0
   -7.1600   -1.6890  -18.5650 C   0  0  0  0  0  0  0  0  0  0  0  0
   -1.6830   -2.8760  -18.1340 C   0  0  0  0  0  0  0  0  0  0  0  0
   -8.2430   -2.8680  -16.7580 N   0  0  0  0  0  0  0  0  0  0  0  0
    0.0680   -1.0690  -21.0350 F   0  0  0  0  0  0  0  0  0  0  0  0
   -5.8740   -2.8960  -16.1310 C   0  0  0  0  0  0  0  0  0  0  0  0
   -2.9760   -0.8130  -18.6940 C   0  0  0  0  0  0  0  0  0  0  0  0
   -7.3930   -4.1670  -15.0730 O   0  0  0  0  0  0  0  0  0  0  0  0
   -7.2600   -3.3900  -15.8920 C   0  0  0  0  0  0  0  0  0  0  0  0
  1  9  1  0  0  0  0
  1  3  2  0  0  0  0
  3 13  1  0  0  0  0
  4 14  1  0  0  0  0
  6  8  2  0  0  0  0
  6 16  1  0  0  0  0
  7  2  1  0  0  0  0
  8  7  1  0  0  0  0
  9 17  1  0  0  0  0
 10  8  1  0  0  0  0
 11  6  1  0  0  0  0
 12 11  2  0  0  0  0
 12  4  1  0  0  0  0
 13 10  1  0  0  0  0
 13  5  2  0  0  0  0
 14 19  1  0  0  0  0
 15  1  1  0  0  0  0
 16 19  1  0  0  0  0
 16  2  2  0  0  0  0
 17 10  2  0  0  0  0
 19 18  2  0  0  0  0
M  END
>  <rank>
48

>  <composite_score>
0.4916

>  <smiles>
O=C1N=C(F)CC=C1C1=C2C=CCNC(=O)C2=NC1

$$$$
