3pbq_imipenem_iter1_filtered_191
 OpenBabel12042511063D

 20 24  0  0  0  0  0  0  0  0999 V2000
   -0.8770   -1.5610  -16.1730 C   0  0  0  0  0  0  0  0  0  0  0  0
   -3.8450   -2.3730  -16.9820 C   0  0  0  0  0  0  0  0  0  0  0  0
   -9.3950   -2.7000  -16.5310 N   0  0  0  0  0  0  0  0  0  0  0  0
   -0.7810   -0.6280  -18.6070 C   0  0  0  0  0  0  0  0  0  0  0  0
   -1.7970   -0.8590  -17.4530 C   0  0  0  0  0  0  0  0  0  0  0  0
   -4.6670   -3.1480  -16.0550 C   0  0  0  0  0  0  0  0  0  0  0  0
   -7.2430   -4.3220  -15.0770 O   0  0  0  0  0  0  0  0  0  0  0  0
   -1.8300   -3.2140  -18.2420 C   0  0  0  0  0  0  0  0  0  0  0  0
   -4.5250   -1.4030  -18.8090 C   0  0  0  0  0  0  0  0  0  0  0  0
   -1.3870   -0.2680  -16.1490 C   0  0  0  0  0  0  0  0  0  0  0  0
   -9.6350   -1.7000  -17.3550 C   0  0  0  0  0  0  0  0  0  0  0  0
   -4.9530   -1.8640  -17.7090 C   0  0  0  0  0  0  0  0  0  0  0  0
   -6.1570   -2.0130  -17.2440 C   0  0  0  0  0  0  0  0  0  0  0  0
   -8.5570   -1.2220  -17.8770 C   0  0  0  0  0  0  0  0  0  0  0  0
   -2.6270   -1.9710  -17.9300 C   0  0  1  0  0  0  0  0  0  0  0  0
   -7.3780   -1.9360  -17.3400 C   0  0  0  0  0  0  0  0  0  0  0  0
   -5.9240   -2.9130  -16.2500 C   0  0  0  0  0  0  0  0  0  0  0  0
   -7.1110   -3.4010  -15.8180 C   0  0  0  0  0  0  0  0  0  0  0  0
   -7.9930   -2.7310  -16.5210 N   0  0  0  0  0  0  0  0  0  0  0  0
   -3.1740   -1.4210  -19.0540 O   0  0  0  0  0  0  0  0  0  0  0  0
  1 10  1  0  0  0  0
  2  6  1  0  0  0  0
  3 19  1  0  0  0  0
  5  4  1  0  0  0  0
  5  1  1  0  0  0  0
  5 10  1  0  0  0  0
  9 12  1  0  0  0  0
 11  3  2  0  0  0  0
 12 13  1  0  0  0  0
 12  2  2  0  0  0  0
 13 17  2  0  0  0  0
 14 11  1  0  0  0  0
 14 16  2  0  0  0  0
 15  8  1  6  0  0  0
 15  5  1  0  0  0  0
 15  2  1  0  0  0  0
 16 13  1  0  0  0  0
 16 19  1  0  0  0  0
 17  6  1  0  0  0  0
 17 18  1  0  0  0  0
 18  7  2  0  0  0  0
 19 18  1  0  0  0  0
 20  9  1  0  0  0  0
 20 15  1  0  0  0  0
M  END
>  <rank>
19

>  <composite_score>
0.5701

>  <smiles>
CC1(C2(C)OCC3=C2CC2=C3c3ccnn3C2=O)CC1

$$$$
