3pbq_imipenem_iter1_filtered_131
 OpenBabel12042511063D

 20 22  0  0  0  0  0  0  0  0999 V2000
   -7.2780   -2.0570  -17.5790 C   0  0  0  0  0  0  0  0  0  0  0  0
   -5.8420   -3.1900  -16.0010 N   0  0  0  0  0  0  0  0  0  0  0  0
   -7.0720   -3.4850  -15.2600 C   0  0  0  0  0  0  0  0  0  0  0  0
   -2.9240   -1.0590  -19.1550 C   0  0  0  0  0  0  0  0  0  0  0  0
   -3.1890   -0.5200  -20.2540 C   0  0  0  0  0  0  0  0  0  0  0  0
   -5.0710   -1.8750  -18.2410 C   0  0  0  0  0  0  0  0  0  0  0  0
   -5.8040   -1.2310  -19.2090 C   0  0  0  0  0  0  0  0  0  0  0  0
   -8.4470   -2.3230  -16.9340 C   0  0  0  0  0  0  0  0  0  0  0  0
   -0.8460   -0.5500  -19.7710 C   0  0  0  0  0  0  0  0  0  0  0  0
   -0.2360   -0.1150  -20.4250 C   0  0  0  0  0  0  0  0  0  0  0  0
   -8.3130   -3.0840  -15.6490 C   0  0  0  0  0  0  0  0  0  0  0  0
   -9.6450   -1.7910  -17.4090 O   0  0  0  0  0  0  0  0  0  0  0  0
   -1.5830   -1.1250  -18.8840 C   0  0  1  0  0  0  0  0  0  0  0  0
   -2.2430   -1.7660  -16.4710 C   0  0  0  0  0  0  0  0  0  0  0  0
   -7.2570   -1.4120  -18.9300 N   0  0  0  0  0  0  0  0  0  0  0  0
   -1.1300   -1.1040  -17.3860 C   0  0  0  0  0  0  0  0  0  0  0  0
   -3.6620   -1.8030  -18.3730 N   0  0  0  0  0  0  0  0  0  0  0  0
   -6.0160   -2.4280  -17.1940 C   0  0  0  0  0  0  0  0  0  0  0  0
   -2.9350   -2.6220  -17.6410 C   0  0  0  0  0  0  0  0  0  0  0  0
   -9.7130   -0.4190  -17.4660 C   0  0  0  0  0  0  0  0  0  0  0  0
  1 18  1  0  0  0  0
  1  8  1  0  0  0  0
  2  3  1  0  0  0  0
  4 13  1  0  0  0  0
  4 17  1  0  0  0  0
  5  4  2  0  0  0  0
  6 18  1  0  0  0  0
  7 15  1  0  0  0  0
  7  6  2  0  0  0  0
  8 11  2  0  0  0  0
 10  9  3  0  0  0  0
 11  3  1  0  0  0  0
 12  8  1  0  0  0  0
 13  9  1  6  0  0  0
 13 16  1  0  0  0  0
 15  1  2  0  0  0  0
 16 14  1  0  0  0  0
 17  6  1  0  0  0  0
 17 19  1  0  0  0  0
 18  2  2  0  0  0  0
 19 14  1  0  0  0  0
 20 12  1  0  0  0  0
M  END
>  <rank>
28

>  <composite_score>
0.5380

>  <smiles>
C#CC1CCCN(C2=CN=C3C(OC)=CCN=C23)C1=C

$$$$
