3pbq_imipenem_iter1_filtered_336
 OpenBabel12042511063D

 19 21  0  0  0  0  0  0  0  0999 V2000
   -7.4430   -3.0110  -15.5250 F   0  0  0  0  0  0  0  0  0  0  0  0
   -8.1920   -1.1040  -18.1080 F   0  0  0  0  0  0  0  0  0  0  0  0
   -4.1650   -1.0830  -18.9460 C   0  0  0  0  0  0  0  0  0  0  0  0
   -5.4300   -2.4500  -16.7850 N   0  0  0  0  0  0  0  0  0  0  0  0
   -3.4960   -0.3140  -19.9930 C   0  0  0  0  0  0  0  0  0  0  0  0
   -7.6950   -2.2660  -17.8950 C   0  0  0  0  0  0  0  0  0  0  0  0
   -2.1630    0.0740  -19.6060 C   0  0  0  0  0  0  0  0  0  0  0  0
   -9.0750   -4.0250  -16.8240 F   0  0  0  0  0  0  0  0  0  0  0  0
   -2.1450   -1.6660  -17.8020 C   0  0  1  0  0  0  0  0  0  0  0  0
   -3.5360   -1.5710  -17.9350 C   0  0  0  0  0  0  0  0  0  0  0  0
   -1.5370   -0.4160  -18.3990 C   0  0  0  0  0  0  0  0  0  0  0  0
   -8.3160   -2.8090  -16.6880 C   0  0  0  0  0  0  0  0  0  0  0  0
   -3.1720   -2.4580  -15.8120 C   0  0  0  0  0  0  0  0  0  0  0  0
   -8.0010   -3.0750  -18.9260 F   0  0  0  0  0  0  0  0  0  0  0  0
   -4.2280   -2.1170  -16.8600 C   0  0  0  0  0  0  0  0  0  0  0  0
   -6.2470   -2.1080  -17.8100 C   0  0  0  0  0  0  0  0  0  0  0  0
   -5.5580   -1.3280  -18.9630 C   0  0  0  0  0  0  0  0  0  0  0  0
   -1.9740   -1.8300  -16.3720 N   0  0  0  0  0  0  0  0  0  0  0  0
   -9.2770   -1.8610  -16.2430 F   0  0  0  0  0  0  0  0  0  0  0  0
  3 10  2  0  0  0  0
  5  7  1  0  0  0  0
  5  3  1  0  0  0  0
  6  2  1  0  0  0  0
  6 16  1  0  0  0  0
  6 12  1  0  0  0  0
  7 11  1  0  0  0  0
  9 11  1  1  0  0  0
  9 18  1  0  0  0  0
 10  9  1  0  0  0  0
 10 15  1  0  0  0  0
 12  8  1  0  0  0  0
 12 19  1  0  0  0  0
 12  1  1  0  0  0  0
 14  6  1  0  0  0  0
 15  4  2  0  0  0  0
 15 13  1  0  0  0  0
 16  4  1  0  0  0  0
 17  3  1  0  0  0  0
 17 16  2  0  0  0  0
 18 13  1  0  0  0  0
M  END
>  <rank>
46

>  <composite_score>
0.4977

>  <smiles>
FC(F)(F)C(F)(F)c1cc2c3c(n1)CNC3CCC2

$$$$
