3pbq_imipenem_iter1_filtered_103
 OpenBabel12042511063D

 19 20  0  0  0  0  0  0  0  0999 V2000
   -7.0020   -2.0950  -18.3290 C   0  0  0  0  0  0  0  0  0  0  0  0
   -9.2850   -1.9970  -17.7390 N   0  0  0  0  0  0  0  0  0  0  0  0
   -5.8100   -2.5600  -16.0270 C   0  0  0  0  0  0  0  0  0  0  0  0
   -1.5540   -2.7080  -15.9480 C   0  0  0  0  0  0  0  0  0  0  0  0
   -4.5830   -1.6210  -18.0940 C   0  0  0  0  0  0  0  0  0  0  0  0
   -7.6920   -3.0570  -16.0770 N   0  0  0  0  0  0  0  0  0  0  0  0
   -9.6580   -4.0250  -16.7120 O   0  0  0  0  0  0  0  0  0  0  0  0
   -7.4770   -3.8310  -15.0190 O   0  0  0  0  0  0  0  0  0  0  0  0
   -2.9860   -2.8050  -16.5230 C   0  0  0  0  0  0  0  0  0  0  0  0
   -0.9980   -0.4500  -17.3440 C   0  0  0  0  0  0  0  0  0  0  0  0
   -8.8730   -3.0810  -16.8780 C   0  0  0  0  0  0  0  0  0  0  0  0
   -3.2420   -1.8360  -17.5190 C   0  0  0  0  0  0  0  0  0  0  0  0
   -8.1050   -1.1580  -18.0710 C   0  0  0  0  0  0  0  0  0  0  0  0
   -2.1280   -1.1440  -18.1730 C   0  0  0  0  0  0  0  0  0  0  0  0
   -5.9060   -2.0520  -17.4600 C   0  0  1  0  0  0  0  0  0  0  0  0
   -2.2240   -0.7760  -19.4810 C   0  0  0  0  0  0  0  0  0  0  0  0
   -0.7860   -1.3190  -16.0290 C   0  0  0  0  0  0  0  0  0  0  0  0
   -3.5220   -0.5820  -20.0420 C   0  0  0  0  0  0  0  0  0  0  0  0
   -4.6670   -0.9280  -19.3390 C   0  0  0  0  0  0  0  0  0  0  0  0
  1 13  1  0  0  0  0
  1 15  1  0  0  0  0
  2 11  1  0  0  0  0
  5 12  1  0  0  0  0
  5 15  1  0  0  0  0
  6  8  1  0  0  0  0
  9  4  1  0  0  0  0
 10 17  1  0  0  0  0
 11  7  2  0  0  0  0
 11  6  1  0  0  0  0
 12  9  1  0  0  0  0
 13  2  1  0  0  0  0
 14 12  2  0  0  0  0
 14 10  1  0  0  0  0
 15  3  1  6  0  0  0
 16 14  1  0  0  0  0
 17  4  1  0  0  0  0
 18 16  2  0  0  0  0
 18 19  1  0  0  0  0
 19  5  2  0  0  0  0
M  END
>  <rank>
24

>  <composite_score>
0.5436

>  <smiles>
CC(CCNC(=O)NO)c1cccc2c1CCCC2

$$$$
