3pbq_imipenem_iter1_filtered_73
 OpenBabel12042511063D

 25 26  0  0  0  0  0  0  0  0999 V2000
   -4.2750   -2.9930  -16.3990 O   0  0  0  0  0  0  0  0  0  0  0  0
   -7.5390   -4.6700  -14.8860 O   0  0  0  0  0  0  0  0  0  0  0  0
   -7.1240   -1.8870  -18.4340 C   0  0  0  0  0  0  0  0  0  0  0  0
   -0.2930   -2.6240  -20.1150 C   0  0  0  0  0  0  0  0  0  0  0  0
    1.0660   -1.0560  -21.0510 O   0  0  0  0  0  0  0  0  0  0  0  0
   -8.2590   -1.2160  -18.4070 N   0  0  0  0  0  0  0  0  0  0  0  0
   -3.0820   -0.3010  -17.6250 C   0  0  0  0  0  0  0  0  0  0  0  0
   -7.1240   -3.3490  -14.9890 C   0  0  0  0  0  0  0  0  0  0  0  0
   -4.0560   -2.4150  -17.2720 C   0  0  0  0  0  0  0  0  0  0  0  0
   -9.1770   -1.4450  -17.3540 C   0  0  0  0  0  0  0  0  0  0  0  0
   -7.0920   -2.9210  -19.1800 O   0  0  0  0  0  0  0  0  0  0  0  0
    0.3020   -0.1440  -19.2900 C   0  0  0  0  0  0  0  0  0  0  0  0
   -2.9760   -1.7150  -17.7150 C   0  0  1  0  0  0  0  0  0  0  0  0
   -1.8720    0.2770  -16.8620 C   0  0  0  0  0  0  0  0  0  0  0  0
   -0.5350    0.1000  -17.6400 C   0  0  0  0  0  0  0  0  0  0  0  0
   -2.2910   -1.9550  -18.5270 C   0  0  2  0  0  0  0  0  0  0  0  0
   -5.9300   -1.5390  -17.6280 C   0  0  0  0  0  0  0  0  0  0  0  0
    0.5770   -1.4960  -19.8680 C   0  0  1  0  0  0  0  0  0  0  0  0
   -8.2300   -3.8740  -15.3650 C   0  0  1  0  0  0  0  0  0  0  0  0
   -8.9440   -3.8370  -16.3300 O   0  0  0  0  0  0  0  0  0  0  0  0
   -0.9070   -2.8800  -18.7280 C   0  0  0  0  0  0  0  0  0  0  0  0
   -8.7300   -2.2400  -16.3770 O   0  0  0  0  0  0  0  0  0  0  0  0
  -10.5350   -0.6300  -17.5200 S   0  0  0  0  0  0  0  0  0  0  0  0
   -2.4720   -0.8970  -19.8020 C   0  0  0  0  0  0  0  0  0  0  0  0
   -5.0780   -2.1490  -17.9070 N   0  0  0  0  0  0  0  0  0  0  0  0
  3  6  1  0  0  0  0
  3 17  1  0  0  0  0
  4 18  1  0  0  0  0
  4 21  1  0  0  0  0
  6 10  1  0  0  0  0
  7 14  1  0  0  0  0
  8  2  1  0  0  0  0
  9  1  2  0  0  0  0
 10 22  1  0  0  0  0
 11  3  2  0  0  0  0
 12 15  1  0  0  0  0
 13  7  1  0  0  0  0
 13  9  1  6  0  0  0
 15 14  1  0  0  0  0
 16 24  1  1  0  0  0
 16 13  1  0  0  0  0
 18  5  1  6  0  0  0
 18 12  1  0  0  0  0
 19 20  1  6  0  0  0
 19  8  1  0  0  0  0
 19  2  1  0  0  0  0
 21 16  1  0  0  0  0
 22 20  1  0  0  0  0
 23 10  2  0  0  0  0
 25 17  1  0  0  0  0
 25  9  1  0  0  0  0
M  END
>  <rank>
45

>  <composite_score>
0.4983

>  <smiles>
CC1CCC(O)CCCCC1C(=O)NCC(=O)NC(=S)OOC1CO1

$$$$
