3pbq_imipenem_iter1_filtered_113
 OpenBabel12042511063D

 21 23  0  0  0  0  0  0  0  0999 V2000
   -6.6780   -2.6680  -16.6880 C   0  0  0  0  0  0  0  0  0  0  0  0
   -8.8830   -3.2640  -16.2840 N   0  0  0  0  0  0  0  0  0  0  0  0
   -9.1590   -2.5720  -17.3980 C   0  0  0  0  0  0  0  0  0  0  0  0
   -2.6360   -2.0590  -17.9080 C   0  0  0  0  0  0  0  0  0  0  0  0
    0.5190   -1.3580  -20.4300 C   0  0  0  0  0  0  0  0  0  0  0  0
   -0.7420   -0.2300  -20.2130 C   0  0  0  0  0  0  0  0  0  0  0  0
   -4.9160   -1.7260  -17.7160 C   0  0  0  0  0  0  0  0  0  0  0  0
   -8.3580   -1.9560  -18.2320 N   0  0  0  0  0  0  0  0  0  0  0  0
    0.9590   -1.3470  -18.9600 C   0  0  0  0  0  0  0  0  0  0  0  0
   -3.6820   -1.1930  -18.0040 N   0  0  0  0  0  0  0  0  0  0  0  0
   -7.0710   -1.9430  -17.8710 C   0  0  0  0  0  0  0  0  0  0  0  0
   -7.2800   -3.9920  -14.9370 O   0  0  0  0  0  0  0  0  0  0  0  0
    0.0410   -2.0570  -16.5620 C   0  0  0  0  0  0  0  0  0  0  0  0
   -7.6100   -3.2970  -15.8790 C   0  0  0  0  0  0  0  0  0  0  0  0
   -0.0830   -2.1890  -18.0500 C   0  0  0  0  0  0  0  0  0  0  0  0
   -0.9880   -0.4620  -18.7250 C   0  0  0  0  0  0  0  0  0  0  0  0
   -5.1950   -2.5090  -16.6250 C   0  0  0  0  0  0  0  0  0  0  0  0
   -5.8970   -1.4490  -18.4710 N   0  0  0  0  0  0  0  0  0  0  0  0
   -1.3860   -1.4360  -18.3780 C   0  0  2  0  0  0  0  0  0  0  0  0
   -0.0170   -3.5370  -18.6190 C   0  0  0  0  0  0  0  0  0  0  0  0
   -2.5120   -3.1070  -17.4070 O   0  0  0  0  0  0  0  0  0  0  0  0
  1 17  2  0  0  0  0
  1 14  1  0  0  0  0
  2 14  1  0  0  0  0
  3  2  2  0  0  0  0
  4 21  2  0  0  0  0
  5  6  1  0  0  0  0
  5  9  1  0  0  0  0
  6 16  1  0  0  0  0
  7 17  1  0  0  0  0
  8 11  2  0  0  0  0
  8  3  1  0  0  0  0
  9 15  1  0  0  0  0
 10  4  1  0  0  0  0
 10  7  1  0  0  0  0
 11  1  1  0  0  0  0
 14 12  2  0  0  0  0
 15 13  1  0  0  0  0
 16 19  1  0  0  0  0
 18 11  1  0  0  0  0
 18  7  2  0  0  0  0
 19 15  1  0  0  0  0
 19  4  1  1  0  0  0
 20 15  1  0  0  0  0
M  END
>  <rank>
10

>  <composite_score>
0.6081

>  <smiles>
CC1(C)CCCCC1C(=O)NC1=NC2=NC=NC(=O)C2=C1

$$$$
