
     RDKit          3D

 23 26  0  0  0  0  0  0  0  0999 V2000
   -2.3560   -3.1400  -17.0440 N   0  0  0  0  0  0  0  0  0  0  0  0
   -2.5370   -0.4440  -19.7360 C   0  0  1  0  0  0  0  0  0  0  0  0
   -4.3580   -1.3420  -18.6440 C   0  0  2  0  0  0  0  0  0  0  0  0
   -5.2080   -3.1600  -15.5540 C   0  0  0  0  0  0  0  0  0  0  0  0
   -5.9540   -2.4460  -16.7230 C   0  0  0  0  0  0  0  0  0  0  0  0
   -9.7640   -2.3030  -17.4060 C   0  0  0  0  0  0  0  0  0  0  0  0
   -3.0740   -0.9260  -18.4870 C   0  0  1  0  0  0  0  0  0  0  0  0
   -8.5630   -4.4720  -15.3670 O   0  0  0  0  0  0  0  0  0  0  0  0
   -4.8560   -0.8020  -19.7660 C   0  0  0  0  0  0  0  0  0  0  0  0
   -6.4090   -3.8880  -14.9850 N   0  0  0  0  0  0  0  0  0  0  0  0
   -6.2620   -0.8890  -19.8140 C   0  0  0  0  0  0  0  0  0  0  0  0
   -5.4530   -1.7830  -17.7670 C   0  0  0  0  0  0  0  0  0  0  0  0
   -7.5340   -3.7830  -15.5870 C   0  0  0  0  0  0  0  0  0  0  0  0
   -2.0720   -1.7700  -17.5960 C   0  0  2  0  0  0  0  0  0  0  0  0
   -7.3470   -2.7480  -16.6670 C   0  0  1  0  0  0  0  0  0  0  0  0
   -8.5360   -2.3500  -17.0480 C   0  0  0  0  0  0  0  0  0  0  0  0
   -1.6530   -3.3140  -15.7110 C   0  0  0  0  0  0  0  0  0  0  0  0
   -3.8150   -0.1980  -20.8700 S   0  0  0  0  0  0  0  0  0  0  0  0
   -6.9050   -0.3830  -20.8640 O   0  0  0  0  0  0  0  0  0  0  0  0
   -1.9390   -4.1010  -17.9660 O   0  0  0  0  0  0  0  0  0  0  0  0
   -6.6270   -1.4230  -18.7660 N   0  0  0  0  0  0  0  0  0  0  0  0
   -0.7460   -0.1560  -19.2670 S   0  0  0  0  0  0  0  0  0  0  0  0
   -0.7000   -1.4520  -18.1010 C   0  0  0  0  0  0  0  0  0  0  0  0
  1 17  1  0
  2 18  1  1
  2 22  1  0
  2  7  1  0
  3  7  1  0
  3 12  1  0
  4 10  2  0
  5 15  1  0
  5  4  1  0
  6 16  3  0
  7 14  1  6
  3  9  1  1
 11  9  1  0
 11 21  1  0
 12  5  2  3
 13  8  2  0
 13 10  1  0
 14  1  1  6
 15 13  1  0
 15 16  1  1
 18  9  1  0
 19 11  2  0
 20  1  1  0
 21 12  1  0
 22 23  1  0
 23 14  1  0
M  END
$$$$

     RDKit          3D

 15 16  0  0  0  0  0  0  0  0999 V2000
   -7.6020   -2.4740  -17.3000 C   0  0  0  0  0  0  0  0  0  0  0  0
   -3.1120   -2.1990  -16.3270 C   0  0  1  0  0  0  0  0  0  0  0  0
   -5.4020   -1.2000  -19.4360 S   0  0  0  0  0  0  0  0  0  0  0  0
   -2.6740   -3.5380  -15.7890 C   0  0  0  0  0  0  0  0  0  0  0  0
   -9.4240   -3.9450  -17.1910 C   0  0  0  0  0  0  0  0  0  0  0  0
   -1.6440   -1.2480  -18.4390 O   0  0  0  0  0  0  0  0  0  0  0  0
   -8.0540   -1.8530  -18.2130 O   0  0  0  0  0  0  0  0  0  0  0  0
   -7.6530   -3.6600  -15.3380 O   0  0  0  0  0  0  0  0  0  0  0  0
   -3.7510   -0.6290  -19.4010 C   0  0  0  0  0  0  0  0  0  0  0  0
   -6.1970   -2.2330  -17.1030 N   0  0  0  0  0  0  0  0  0  0  0  0
   -1.7830   -3.0620  -16.7530 C   0  0  0  0  0  0  0  0  0  0  0  0
   -5.1550   -1.8820  -17.9280 C   0  0  2  0  0  0  0  0  0  0  0  0
   -3.0220   -1.3790  -18.4730 C   0  0  2  0  0  0  0  0  0  0  0  0
   -3.9170   -2.0060  -17.5190 C   0  0  1  0  0  0  0  0  0  0  0  0
   -8.4610   -3.0700  -16.3520 C   0  0  1  0  0  0  0  0  0  0  0  0
  1 10  1  0
  1 15  1  0
  2  4  1  1
  3  9  1  0
  3 12  1  0
  7  1  2  0
  9 13  1  0
 11  2  1  0
 11  4  1  0
 12 14  1  0
 12 10  1  1
 13  6  1  1
 13 14  1  0
 14  2  1  1
 15  5  1  6
 15  8  1  0
M  END
$$$$

     RDKit          3D

 20 23  0  0  0  0  0  0  0  0999 V2000
   -3.2000   -2.2980  -15.4180 C   0  0  0  0  0  0  0  0  0  0  0  0
   -0.6810    0.4760  -17.6540 C   0  0  0  0  0  0  0  0  0  0  0  0
   -6.9060   -1.7620  -18.2940 C   0  0  0  0  0  0  0  0  0  0  0  0
  -10.4120   -1.7260  -17.1320 N   0  0  0  0  0  0  0  0  0  0  0  0
   -2.7440   -0.9960  -17.7190 C   0  0  2  0  0  0  0  0  0  0  0  0
   -8.6110   -2.8470  -16.2640 N   0  0  0  0  0  0  0  0  0  0  0  0
   -9.1010   -1.9870  -17.1840 C   0  0  0  0  0  0  0  0  0  0  0  0
   -1.0510   -1.1700  -15.7840 C   0  0  0  0  0  0  0  0  0  0  0  0
   -2.1410    0.4750  -17.9640 C   0  0  0  0  0  0  0  0  0  0  0  0
   -3.2040   -4.2440  -16.7500 C   0  0  0  0  0  0  0  0  0  0  0  0
   -6.3010   -2.4070  -17.1360 C   0  0  0  0  0  0  0  0  0  0  0  0
   -4.9140   -2.4720  -17.1080 C   0  0  1  0  0  0  0  0  0  0  0  0
   -4.2390   -1.5480  -17.9790 C   0  0  0  0  0  0  0  0  0  0  0  0
   -4.1460   -3.3500  -16.0960 C   0  0  2  0  0  0  0  0  0  0  0  0
   -7.0300   -2.9280  -16.3520 C   0  0  0  0  0  0  0  0  0  0  0  0
   -0.4070    0.2430  -16.1300 C   0  0  0  0  0  0  0  0  0  0  0  0
   -6.0740   -1.2670  -19.2250 N   0  0  0  0  0  0  0  0  0  0  0  0
   -2.4140   -1.4440  -16.2680 N   0  0  0  0  0  0  0  0  0  0  0  0
   -8.3560   -1.5210  -18.2320 N   0  0  0  0  0  0  0  0  0  0  0  0
   -4.7810   -1.1170  -19.0920 N   0  0  0  0  0  0  0  0  0  0  0  0
  2 16  1  0
  3 19  1  0
  3 11  1  0
  5  9  1  1
  5 18  1  0
  7  4  1  0
  7  6  2  0
  9  2  1  0
 11 15  2  0
 12 11  1  1
 12 14  1  0
 13 20  1  0
 13  5  1  0
 13 12  1  0
 14 10  1  6
 14  1  1  0
 15  6  1  0
 16  8  1  0
 17 20  1  0
 17  3  2  0
 18  8  1  0
 18  1  1  0
 19  7  1  0
M  END
$$$$

     RDKit          3D

 20 22  0  0  0  0  0  0  0  0999 V2000
   -8.5270   -3.3070  -16.8500 O   0  0  0  0  0  0  0  0  0  0  0  0
   -3.3120   -1.0020  -19.0270 O   0  0  0  0  0  0  0  0  0  0  0  0
   -4.5630   -1.3740  -18.7150 C   0  0  0  0  0  0  0  0  0  0  0  0
   -7.9410   -4.2880  -14.9260 O   0  0  0  0  0  0  0  0  0  0  0  0
   -2.4090   -2.2920  -17.2410 C   0  0  0  0  0  0  0  0  0  0  0  0
   -2.2440   -1.6340  -18.3610 C   0  0  0  0  0  0  0  0  0  0  0  0
   -6.1450   -2.2730  -17.2420 C   0  0  0  0  0  0  0  0  0  0  0  0
   -3.7860   -2.5710  -16.6640 C   0  0  0  0  0  0  0  0  0  0  0  0
   -0.1380   -2.3420  -17.0100 C   0  0  0  0  0  0  0  0  0  0  0  0
   -7.6930   -3.5720  -15.8350 C   0  0  0  0  0  0  0  0  0  0  0  0
   -1.0040   -1.3290  -18.8750 C   0  0  0  0  0  0  0  0  0  0  0  0
   -6.7550   -1.1530  -19.3230 C   0  0  0  0  0  0  0  0  0  0  0  0
   -7.1530   -1.9280  -18.1250 C   0  0  0  0  0  0  0  0  0  0  0  0
   -0.0150   -2.1860  -18.3420 C   0  0  0  0  0  0  0  0  0  0  0  0
   -5.4280   -0.9140  -19.5270 N   0  0  0  0  0  0  0  0  0  0  0  0
   -7.6870   -0.6640  -20.1470 O   0  0  0  0  0  0  0  0  0  0  0  0
   -4.7880   -2.0590  -17.5460 C   0  0  0  0  0  0  0  0  0  0  0  0
   -1.3270   -2.6620  -16.5580 C   0  0  0  0  0  0  0  0  0  0  0  0
   -6.3930   -2.9520  -15.9660 C   0  0  0  0  0  0  0  0  0  0  0  0
   -9.6650   -4.0260  -17.0790 C   0  0  0  0  0  0  0  0  0  0  0  0
  1 10  1  0
  2  3  1  0
  2  6  1  0
  3 17  1  0
  5  8  1  0
  5 18  1  0
  6  5  2  0
  7 19  1  0
  9 18  1  0
 10  4  2  0
 11  6  1  0
 11 14  1  0
 12 13  1  0
 13  7  1  0
 14  9  1  0
 15 12  1  0
 15  3  2  0
 16 12  2  0
 17  7  2  0
 17  8  1  0
 19 10  1  0
 20  1  1  0
M  END
$$$$

     RDKit          3D

 21 24  0  0  0  0  0  0  0  0999 V2000
   -0.3060   -2.1420  -18.3680 C   0  0  1  0  0  0  0  0  0  0  0  0
   -4.2980   -1.9030  -18.5540 N   0  0  0  0  0  0  0  0  0  0  0  0
   -1.4210   -3.0950  -18.2030 O   0  0  0  0  0  0  0  0  0  0  0  0
   -2.5760   -0.7430  -19.0400 C   0  0  0  0  0  0  0  0  0  0  0  0
   -1.3040   -0.4500  -15.9310 C   0  0  0  0  0  0  0  0  0  0  0  0
   -0.9480   -1.2660  -17.2030 C   0  0  2  0  0  0  0  0  0  0  0  0
   -6.7940   -3.0980  -16.0080 C   0  0  0  0  0  0  0  0  0  0  0  0
   -2.2020   -2.4380  -17.1790 C   0  0  1  0  0  0  0  0  0  0  0  0
   -5.5670   -2.0500  -17.7440 C   0  0  1  0  0  0  0  0  0  0  0  0
   -6.8500   -3.8630  -15.0890 O   0  0  0  0  0  0  0  0  0  0  0  0
    0.3340   -2.3050  -19.4810 C   0  0  0  0  0  0  0  0  0  0  0  0
   -1.1500   -0.6550  -18.6260 C   0  0  1  0  0  0  0  0  0  0  0  0
   -3.1390   -1.3910  -17.8670 C   0  0  2  0  0  0  0  0  0  0  0  0
   -9.2250   -3.3560  -16.5200 C   0  0  0  0  0  0  0  0  0  0  0  0
   -5.5020   -2.7370  -16.4800 C   0  0  0  0  0  0  0  0  0  0  0  0
   -0.1110    0.4080  -18.9360 O   0  0  0  0  0  0  0  0  0  0  0  0
   -8.9530   -0.7630  -18.0010 O   0  0  0  0  0  0  0  0  0  0  0  0
   -6.6770   -1.3490  -18.2330 C   0  0  0  0  0  0  0  0  0  0  0  0
  -10.0430   -0.3600  -17.2060 C   0  0  0  0  0  0  0  0  0  0  0  0
   -7.9520   -2.6590  -16.7080 N   0  0  0  0  0  0  0  0  0  0  0  0
   -7.8920   -1.5160  -17.6760 C   0  0  0  0  0  0  0  0  0  0  0  0
  1 11  1  6
  1  3  1  0
  1  6  1  0
  4 12  1  0
  4 13  1  0
  6  8  1  0
  6  5  1  1
  7 10  2  0
  8  3  1  6
  9  2  1  1
  9 15  1  0
 12 16  1  1
 12  1  1  0
 12  6  1  0
 13  2  1  6
 13  8  1  0
 15  7  1  0
 17 21  1  0
 17 19  1  0
 18  9  1  0
 18 21  2  0
 20 14  1  0
 20  7  1  0
 21 20  1  0
M  END
$$$$

     RDKit          3D

 21 22  0  0  0  0  0  0  0  0999 V2000
   -1.5500   -0.3120  -19.9680 C   0  0  0  0  0  0  0  0  0  0  0  0
   -6.1530   -2.4900  -17.0060 C   0  0  0  0  0  0  0  0  0  0  0  0
   -6.9050   -1.1010  -19.3550 C   0  0  0  0  0  0  0  0  0  0  0  0
   -3.5510   -2.2750  -16.2430 O   0  0  0  0  0  0  0  0  0  0  0  0
   -7.4650   -2.5990  -16.9330 C   0  0  0  0  0  0  0  0  0  0  0  0
   -2.8320   -0.9990  -19.4560 C   0  0  0  0  0  0  0  0  0  0  0  0
   -3.7950   -2.0440  -17.4410 C   0  0  0  0  0  0  0  0  0  0  0  0
   -1.7530   -3.0070  -17.9970 C   0  0  0  0  0  0  0  0  0  0  0  0
   -7.1710   -3.7980  -14.9210 O   0  0  0  0  0  0  0  0  0  0  0  0
   -2.7720   -1.9310  -18.2900 N   0  0  0  0  0  0  0  0  0  0  0  0
   -8.9220   -4.4040  -16.1080 O   0  0  0  0  0  0  0  0  0  0  0  0
   -5.6570   -1.3270  -19.0130 N   0  0  0  0  0  0  0  0  0  0  0  0
   -7.9160   -3.6670  -15.9070 C   0  0  0  0  0  0  0  0  0  0  0  0
   -0.4740   -1.0920  -20.3370 O   0  0  0  0  0  0  0  0  0  0  0  0
   -0.3780   -2.6270  -18.5680 C   0  0  0  0  0  0  0  0  0  0  0  0
  -10.2460   -0.7950  -16.7710 C   0  0  0  0  0  0  0  0  0  0  0  0
   -9.7230   -1.9480  -17.3800 O   0  0  0  0  0  0  0  0  0  0  0  0
   -0.4280   -2.5020  -20.0940 C   0  0  0  0  0  0  0  0  0  0  0  0
   -5.2450   -1.9360  -17.8880 C   0  0  0  0  0  0  0  0  0  0  0  0
   -8.4260   -1.9590  -17.7490 C   0  0  0  0  0  0  0  0  0  0  0  0
   -8.0750   -1.2910  -18.8260 N   0  0  0  0  0  0  0  0  0  0  0  0
  1  6  1  0
  2  5  2  0
  3 12  2  0
  3 21  1  0
  5 13  1  0
  6 10  1  0
  7  4  2  0
 10  8  1  0
 10  7  1  0
 11 13  2  0
 12 19  1  0
 13  9  1  0
 14 18  1  0
 14  1  1  0
 15  8  1  0
 17 16  1  0
 18 15  1  0
 19  7  1  0
 19  2  1  0
 20 17  1  0
 20  5  1  0
 21 20  2  0
M  END
$$$$

     RDKit          3D

 15 16  0  0  0  0  0  0  0  0999 V2000
   -2.2550    0.6560  -19.3040 C   0  0  0  0  0  0  0  0  0  0  0  0
   -4.9890   -1.5290  -17.9770 C   0  0  0  0  0  0  0  0  0  0  0  0
   -6.9200   -2.5300  -16.9780 C   0  0  0  0  0  0  0  0  0  0  0  0
   -2.8450   -0.1990  -18.2630 C   0  0  2  0  0  0  0  0  0  0  0  0
   -4.6770   -0.8780  -19.7450 N   0  0  0  0  0  0  0  0  0  0  0  0
   -8.6230   -4.0250  -16.1070 O   0  0  0  0  0  0  0  0  0  0  0  0
   -7.0860   -3.3210  -14.8150 O   0  0  0  0  0  0  0  0  0  0  0  0
   -7.6480   -2.2750  -18.0610 C   0  0  0  0  0  0  0  0  0  0  0  0
   -5.6900   -1.4430  -19.0720 C   0  0  0  0  0  0  0  0  0  0  0  0
   -2.8600    0.5640  -17.0790 O   0  0  0  0  0  0  0  0  0  0  0  0
   -1.9650   -1.1310  -17.7210 F   0  0  0  0  0  0  0  0  0  0  0  0
   -3.9550   -0.8540  -18.4470 C   0  0  2  0  0  0  0  0  0  0  0  0
   -7.5790   -3.3760  -15.8780 C   0  0  0  0  0  0  0  0  0  0  0  0
   -6.9270   -1.7400  -19.2070 C   0  0  0  0  0  0  0  0  0  0  0  0
   -5.5500   -2.2130  -16.7940 C   0  0  0  0  0  0  0  0  0  0  0  0
  2 15  1  0
  3 15  2  0
  3 13  1  0
  4  1  1  6
  4 11  1  0
  4 10  1  0
  5  9  1  0
 12  5  1  1
  6 13  2  0
  8  3  1  0
  9  2  2  0
 12  4  1  0
 12  2  1  0
 13  7  1  0
 14  9  1  0
 14  8  2  0
M  END
$$$$

     RDKit          3D

 20 21  0  0  0  0  0  0  0  0999 V2000
   -2.6800   -1.8750  -16.9740 C   0  0  0  0  0  0  0  0  0  0  0  0
   -6.0720   -2.9860  -15.8010 N   0  0  0  0  0  0  0  0  0  0  0  0
   -9.0260   -2.0840  -17.8500 O   0  0  0  0  0  0  0  0  0  0  0  0
   -3.7280   -2.4590  -16.0990 C   0  0  2  0  0  0  0  0  0  0  0  0
   -7.0400   -0.9980  -19.2010 O   0  0  0  0  0  0  0  0  0  0  0  0
   -9.9580   -1.4390  -17.0230 C   0  0  0  0  0  0  0  0  0  0  0  0
   -4.3220   -1.4910  -18.6780 N   0  0  0  0  0  0  0  0  0  0  0  0
   -7.3570   -2.9110  -16.2200 C   0  0  0  0  0  0  0  0  0  0  0  0
   -5.0570   -2.4160  -16.5150 C   0  0  0  0  0  0  0  0  0  0  0  0
   -6.7090   -1.6660  -18.1720 C   0  0  0  0  0  0  0  0  0  0  0  0
   -1.8510   -1.3750  -19.1090 N   0  0  0  0  0  0  0  0  0  0  0  0
   -7.6940   -2.2320  -17.4120 C   0  0  0  0  0  0  0  0  0  0  0  0
   -8.2110   -3.4800  -15.5000 O   0  0  0  0  0  0  0  0  0  0  0  0
   -5.3400   -1.8370  -17.8610 C   0  0  0  0  0  0  0  0  0  0  0  0
   -1.6560   -1.3960  -16.3740 O   0  0  0  0  0  0  0  0  0  0  0  0
   -3.2110   -2.8890  -14.8070 C   0  0  0  0  0  0  0  0  0  0  0  0
   -2.6790   -0.1390  -20.7270 O   0  0  0  0  0  0  0  0  0  0  0  0
   -0.2140   -1.2570  -20.8060 C   0  0  0  0  0  0  0  0  0  0  0  0
   -1.7620   -1.0960  -20.4540 C   0  0  0  0  0  0  0  0  0  0  0  0
   -2.9650   -1.6780  -18.3240 C   0  0  0  0  0  0  0  0  0  0  0  0
  1 15  2  0
  1  4  1  0
  3  6  1  0
  4 16  1  1
  5 10  2  0
  7 20  2  0
  7 14  1  0
  8  2  1  0
  8 13  2  0
  9  4  1  0
  9  2  1  0
 10 14  1  0
 10 12  1  0
 11 20  1  0
 12  3  1  0
 12  8  1  0
 14  9  2  0
 17 19  2  0
 18 19  1  0
 19 11  1  0
 20  1  1  0
M  END
$$$$

     RDKit          3D

 19 20  0  0  0  0  0  0  0  0999 V2000
   -2.0980   -1.1880  -19.4500 O   0  0  0  0  0  0  0  0  0  0  0  0
   -7.4380   -2.2090  -17.1280 N   0  0  0  0  0  0  0  0  0  0  0  0
   -4.2220   -3.1380  -15.4610 O   0  0  0  0  0  0  0  0  0  0  0  0
   -6.0880   -0.8290  -19.9080 O   0  0  0  0  0  0  0  0  0  0  0  0
   -3.1060   -0.4010  -19.1600 C   0  0  2  0  0  0  0  0  0  0  0  0
   -5.9230   -2.6850  -19.3340 O   0  0  0  0  0  0  0  0  0  0  0  0
   -5.3690   -2.8290  -15.9460 C   0  0  0  0  0  0  0  0  0  0  0  0
   -5.6640   -1.4180  -18.6130 P   0  0  1  0  0  0  0  0  0  0  0  0
   -4.2650   -1.2830  -18.6280 C   0  0  0  0  0  0  0  0  0  0  0  0
   -2.9890   -2.7020  -15.5620 C   0  0  0  0  0  0  0  0  0  0  0  0
   -9.2020   -3.3230  -16.7290 O   0  0  0  0  0  0  0  0  0  0  0  0
   -8.0350   -2.9810  -16.3690 C   0  0  0  0  0  0  0  0  0  0  0  0
   -3.5550    0.2560  -20.2330 O   0  0  0  0  0  0  0  0  0  0  0  0
   -2.6220   -2.0560  -16.5210 C   0  0  0  0  0  0  0  0  0  0  0  0
   -6.2220   -2.1340  -17.1120 C   0  0  1  0  0  0  0  0  0  0  0  0
   -8.2460   -1.1460  -17.8930 C   0  0  0  0  0  0  0  0  0  0  0  0
   -7.4570   -3.7280  -15.4970 C   0  0  0  0  0  0  0  0  0  0  0  0
   -3.7500   -1.8240  -17.4830 C   0  0  0  0  0  0  0  0  0  0  0  0
   -6.2600   -3.6100  -15.2480 N   0  0  0  0  0  0  0  0  0  0  0  0
  5  1  1  6
 15  2  1  6
  2 12  1  0
  5  9  1  0
  8  6  1  6
  7  3  1  0
  7 19  2  0
  8  4  2  0
  8 15  1  0
  9  8  1  0
  9 18  2  3
 10  3  1  0
 11 12  2  0
 12 17  1  0
 13  5  1  0
 14 10  1  0
 15  7  1  0
 16  2  1  0
 17 19  1  0
 18 14  1  0
M  END
$$$$

     RDKit          3D

 20 20  0  0  0  0  0  0  0  0999 V2000
   -3.7620   -1.0000  -19.1380 C   0  0  0  0  0  0  0  0  0  0  0  0
   -4.5480   -1.5790  -18.1820 C   0  0  0  0  0  0  0  0  0  0  0  0
   -9.9440   -1.7030  -16.5300 C   0  0  0  0  0  0  0  0  0  0  0  0
   -8.6400   -1.3260  -18.4820 O   0  0  0  0  0  0  0  0  0  0  0  0
   -7.1780   -5.1290  -14.6950 O   0  0  0  0  0  0  0  0  0  0  0  0
   -4.8830   -2.5200  -15.8540 O   0  0  0  0  0  0  0  0  0  0  0  0
   -8.4920   -3.7670  -16.2850 C   0  0  0  0  0  0  0  0  0  0  0  0
   -2.7290   -2.6090  -16.8260 C   0  0  0  0  0  0  0  0  0  0  0  0
   -1.7280   -2.8560  -16.0270 N   0  0  0  0  0  0  0  0  0  0  0  0
   -6.4200   -1.3500  -19.6480 O   0  0  0  0  0  0  0  0  0  0  0  0
   -2.3110   -1.4450  -19.0110 C   0  0  0  0  0  0  0  0  0  0  0  0
   -0.5390   -2.5480  -16.4240 O   0  0  0  0  0  0  0  0  0  0  0  0
   -6.7550   -2.0930  -17.5660 C   0  0  0  0  0  0  0  0  0  0  0  0
   -8.6440   -2.3410  -16.4170 N   0  0  0  0  0  0  0  0  0  0  0  0
   -7.4300   -3.8350  -15.1520 C   0  0  0  0  0  0  0  0  0  0  0  0
   -1.8730   -3.5750  -14.9530 O   0  0  0  0  0  0  0  0  0  0  0  0
   -2.2480   -2.8270  -18.2360 C   0  0  0  0  0  0  0  0  0  0  0  0
   -4.1100   -2.2610  -16.9680 C   0  0  0  0  0  0  0  0  0  0  0  0
   -8.1310   -1.9790  -17.5310 C   0  0  0  0  0  0  0  0  0  0  0  0
   -6.0320   -1.1910  -18.2730 C   0  0  1  0  0  0  0  0  0  0  0  0
  1 11  1  0
  1  2  1  0
  2 18  2  0
  3 14  1  0
  4 19  2  0
  7 15  1  0
  8  9  1  0
  9 16  1  0
 11 17  1  0
 12  9  2  0
 13 19  1  0
 14  7  1  0
 15  5  1  0
 17  8  1  0
 18  8  1  0
 18  6  1  0
 19 14  1  0
 20 10  1  6
 20  2  1  0
 20 13  1  0
M  CHG  2   9   1  16  -1
M  END
$$$$

     RDKit          3D

 16 17  0  0  0  0  0  0  0  0999 V2000
   -8.2270   -2.5950  -17.2750 C   0  0  0  0  0  0  0  0  0  0  0  0
   -1.4160   -2.1900  -15.8370 C   0  0  0  0  0  0  0  0  0  0  0  0
   -7.5320   -2.7870  -16.2170 N   0  0  0  0  0  0  0  0  0  0  0  0
   -7.9820   -1.0660  -18.5280 O   0  0  0  0  0  0  0  0  0  0  0  0
   -3.6870   -1.8600  -17.4250 C   0  0  1  0  0  0  0  0  0  0  0  0
   -0.6720    0.3000  -16.4100 C   0  0  0  0  0  0  0  0  0  0  0  0
   -7.2610   -2.2490  -18.3500 C   0  0  1  0  0  0  0  0  0  0  0  0
   -9.4670   -2.6920  -17.2850 O   0  0  0  0  0  0  0  0  0  0  0  0
   -2.4970   -0.9390  -17.6240 C   0  0  0  0  0  0  0  0  0  0  0  0
   -4.7950   -1.4440  -18.1630 C   0  0  0  0  0  0  0  0  0  0  0  0
   -3.2910   -3.0540  -16.7710 C   0  0  0  0  0  0  0  0  0  0  0  0
   -6.2190   -2.4600  -16.5290 C   0  0  0  0  0  0  0  0  0  0  0  0
   -6.0620   -2.0950  -17.6010 C   0  0  0  0  0  0  0  0  0  0  0  0
   -7.0840   -3.0760  -19.5240 N   0  0  0  0  0  0  0  0  0  0  0  0
   -1.5790   -0.9860  -16.6200 C   0  0  0  0  0  0  0  0  0  0  0  0
   -2.2000   -3.1960  -16.1120 N   0  0  0  0  0  0  0  0  0  0  0  0
  1  3  1  0
  4  7  1  0
  5 10  1  6
  5 11  1  0
  7 14  1  6
  7 13  1  0
  7  1  1  0
  8  1  2  0
  9  5  1  0
  9 15  1  0
 10 13  1  0
 11 16  2  0
 12  3  1  0
 13 12  2  0
 15  6  1  0
 15  2  2  0
 16  2  1  0
M  END
$$$$

     RDKit          3D

 19 21  0  0  0  0  0  0  0  0999 V2000
   -8.8110   -2.1290  -17.5890 C   0  0  0  0  0  0  0  0  0  0  0  0
   -3.3400   -1.6240  -17.2760 C   0  0  0  0  0  0  0  0  0  0  0  0
   -9.9710   -2.0640  -17.6210 O   0  0  0  0  0  0  0  0  0  0  0  0
   -6.7910   -2.0040  -18.5440 C   0  0  2  0  0  0  0  0  0  0  0  0
   -1.6050   -1.9760  -15.7530 C   0  0  0  0  0  0  0  0  0  0  0  0
   -1.5430   -3.0160  -16.6470 C   0  0  0  0  0  0  0  0  0  0  0  0
   -1.6590   -0.3260  -17.5160 C   0  0  0  0  0  0  0  0  0  0  0  0
   -7.3940   -4.1830  -15.1420 C   0  0  0  0  0  0  0  0  0  0  0  0
   -7.6670   -2.5870  -16.9250 C   0  0  0  0  0  0  0  0  0  0  0  0
   -5.6260   -1.8380  -17.9760 C   0  0  2  0  0  0  0  0  0  0  0  0
   -8.4220   -3.2990  -15.6280 N   0  0  0  0  0  0  0  0  0  0  0  0
   -4.1880   -1.3530  -18.2370 C   0  0  0  0  0  0  0  0  0  0  0  0
   -5.6240   -2.5430  -16.7420 N   0  0  0  0  0  0  0  0  0  0  0  0
   -7.8600   -1.6560  -18.6160 N   0  0  0  0  0  0  0  0  0  0  0  0
   -6.7050   -2.7330  -16.8150 N   0  0  0  0  0  0  0  0  0  0  0  0
   -2.7440   -0.1850  -19.7120 C   0  0  0  0  0  0  0  0  0  0  0  0
   -2.5080   -1.1470  -16.5600 C   0  0  1  0  0  0  0  0  0  0  0  0
   -3.8490   -0.6780  -19.4450 C   0  0  0  0  0  0  0  0  0  0  0  0
   -1.7340    0.1310  -18.7430 C   0  0  0  0  0  0  0  0  0  0  0  0
  1  9  1  0
  2 17  1  0
  3  1  2  0
  4 14  1  1
  4 10  1  0
  4 15  1  0
  6  5  1  0
  7 17  1  0
  9 15  1  0
  9 11  1  0
 10 12  1  6
 10 13  1  0
 11  8  1  0
 12  2  1  0
 14  1  1  0
 15 13  1  0
 16 18  1  0
 16 19  1  0
 17  5  1  6
 18 12  2  0
 19  7  2  0
M  END
$$$$

     RDKit          3D

 15 16  0  0  0  0  0  0  0  0999 V2000
   -1.2180   -2.7440  -17.1070 C   0  0  0  0  0  0  0  0  0  0  0  0
   -4.7280   -1.9610  -17.4560 C   0  0  0  0  0  0  0  0  0  0  0  0
   -7.4140   -1.6030  -18.4130 C   0  0  0  0  0  0  0  0  0  0  0  0
   -2.1670   -1.5600  -18.5110 C   0  0  2  0  0  0  0  0  0  0  0  0
   -7.1850   -2.6950  -19.3310 N   0  0  0  0  0  0  0  0  0  0  0  0
   -4.5110   -1.1150  -18.6490 C   0  0  0  0  0  0  0  0  0  0  0  0
   -3.6020   -2.5340  -16.8740 C   0  0  0  0  0  0  0  0  0  0  0  0
   -7.2720   -1.9530  -16.9060 C   0  0  1  0  0  0  0  0  0  0  0  0
   -2.4330   -2.0780  -17.3820 N   0  0  0  0  0  0  0  0  0  0  0  0
   -0.8060   -0.5310  -19.1880 Cl  0  0  0  0  0  0  0  0  0  0  0  0
   -8.2700   -2.9960  -16.3990 O   0  0  0  0  0  0  0  0  0  0  0  0
   -4.0300   -3.2340  -15.8820 N   0  0  0  0  0  0  0  0  0  0  0  0
   -5.4450   -3.2270  -15.8180 N   0  0  0  0  0  0  0  0  0  0  0  0
   -3.4890   -0.8480  -19.4820 C   0  0  0  0  0  0  0  0  0  0  0  0
   -5.8700   -2.4550  -16.7410 C   0  0  2  0  0  0  0  0  0  0  0  0
  2  7  2  0
  2 15  1  0
  3  8  1  0
  4 10  1  1
  4  9  1  0
  5  3  1  0
  6  2  1  0
  7 12  1  0
  8 11  1  6
  9  1  1  0
  9  7  1  0
 12 13  2  0
 14  6  1  0
 14  4  1  0
 15  8  1  0
 15 13  1  1
M  END
$$$$

     RDKit          3D

 21 23  0  0  0  0  0  0  0  0999 V2000
   -0.3410   -1.7120  -17.1360 C   0  0  0  0  0  0  0  0  0  0  0  0
   -9.4850   -1.8100  -16.4810 O   0  0  0  0  0  0  0  0  0  0  0  0
   -0.4430    0.5360  -19.3190 O   0  0  0  0  0  0  0  0  0  0  0  0
   -7.2920   -3.3550  -18.7020 N   0  0  0  0  0  0  0  0  0  0  0  0
   -3.2380   -0.1480  -19.1090 C   0  0  2  0  0  0  0  0  0  0  0  0
   -3.5750   -1.6600  -18.1830 C   0  0  2  0  0  0  0  0  0  0  0  0
   -5.9440   -1.8390  -17.1740 C   0  0  0  0  0  0  0  0  0  0  0  0
   -5.8890   -1.4290  -19.5060 C   0  0  0  0  0  0  0  0  0  0  0  0
   -2.4490   -0.7210  -19.6240 C   0  0  0  0  0  0  0  0  0  0  0  0
   -9.2100   -4.1770  -16.7460 O   0  0  0  0  0  0  0  0  0  0  0  0
   -1.6330    0.6360  -17.1300 C   0  0  0  0  0  0  0  0  0  0  0  0
   -4.9590   -1.1830  -18.1430 C   0  0  2  0  0  0  0  0  0  0  0  0
   -6.5310   -2.6480  -19.4460 C   0  0  0  0  0  0  0  0  0  0  0  0
   -8.8050   -2.9410  -16.9150 C   0  0  0  0  0  0  0  0  0  0  0  0
   -7.1900   -0.5520  -18.2000 F   0  0  0  0  0  0  0  0  0  0  0  0
   -8.0800   -2.4110  -18.2570 C   0  0  1  0  0  0  0  0  0  0  0  0
   -7.3730   -1.6770  -17.9240 C   0  0  1  0  0  0  0  0  0  0  0  0
   -1.5800   -2.4170  -17.7330 C   0  0  0  0  0  0  0  0  0  0  0  0
   -0.9560   -0.4470  -16.5840 C   0  0  0  0  0  0  0  0  0  0  0  0
   -1.9820    0.2800  -18.6580 C   0  0  2  0  0  0  0  0  0  0  0  0
   -2.9280   -1.9410  -17.0980 C   0  0  0  0  0  0  0  0  0  0  0  0
  1 19  1  0
  4 16  1  0
  5  9  1  6
  5 20  1  0
  5  6  1  0
  6 12  1  0
  6 21  1  1
  8 13  1  0
  9 20  1  0
 11 19  1  0
 12  8  1  6
 12  7  1  0
 13  4  1  0
 14 10  2  0
 14  2  1  0
 16 17  1  0
 16 14  1  1
 17 15  1  6
 17  7  1  0
 18  1  1  0
 18 21  1  0
 20  3  1  6
 20 11  1  0
M  END
$$$$

     RDKit          3D

 20 20  0  0  0  0  0  0  0  0999 V2000
   -1.5550   -1.7090  -19.2780 C   0  0  2  0  0  0  0  0  0  0  0  0
   -8.3980   -4.0410  -15.9910 O   0  0  0  0  0  0  0  0  0  0  0  0
    0.7870   -0.8990  -17.1560 O   0  0  0  0  0  0  0  0  0  0  0  0
   -3.7610   -0.7980  -18.5170 C   0  0  0  0  0  0  0  0  0  0  0  0
   -0.3100   -0.2710  -17.3750 C   0  0  0  0  0  0  0  0  0  0  0  0
   -6.7150   -3.4710  -14.7620 O   0  0  0  0  0  0  0  0  0  0  0  0
   -0.7550   -0.4350  -18.8440 C   0  0  0  0  0  0  0  0  0  0  0  0
   -6.8230   -2.4290  -16.9050 C   0  0  0  0  0  0  0  0  0  0  0  0
   -7.8040   -2.0180  -17.8490 C   0  0  0  0  0  0  0  0  0  0  0  0
   -5.1070   -1.3250  -18.2760 C   0  0  0  0  0  0  0  0  0  0  0  0
   -0.7400    0.2970  -16.3800 O   0  0  0  0  0  0  0  0  0  0  0  0
   -7.4420   -1.3100  -19.0210 C   0  0  0  0  0  0  0  0  0  0  0  0
   -2.5900   -0.0240  -20.6220 O   0  0  0  0  0  0  0  0  0  0  0  0
   -5.4620   -2.1040  -17.1460 C   0  0  0  0  0  0  0  0  0  0  0  0
   -7.3150   -3.2960  -15.7920 C   0  0  0  0  0  0  0  0  0  0  0  0
   -2.9540   -1.1310  -19.7120 C   0  0  1  0  0  0  0  0  0  0  0  0
   -6.1230   -0.9780  -19.2040 C   0  0  0  0  0  0  0  0  0  0  0  0
   -4.3830   -2.5860  -16.0460 C   0  0  0  0  0  0  0  0  0  0  0  0
   -3.2620   -0.0230  -17.6650 O   0  0  0  0  0  0  0  0  0  0  0  0
   -1.5410   -2.7960  -18.1290 C   0  0  0  0  0  0  0  0  0  0  0  0
  1  7  1  0
  1 20  1  1
  2 15  2  0
  4 10  1  0
  4 19  2  0
  5  3  2  0
  5 11  1  0
  7  5  1  0
  8 15  1  0
  9  8  2  0
 10 14  2  0
 12  9  1  0
 14  8  1  0
 14 18  1  0
 15  6  1  0
 16 13  1  1
 16  1  1  0
 16  4  1  0
 17 12  2  0
 17 10  1  0
M  END
$$$$

     RDKit          3D

 20 22  0  0  0  0  0  0  0  0999 V2000
   -9.0790   -2.5630  -16.1380 O   0  0  0  0  0  0  0  0  0  0  0  0
   -1.5470   -0.2550  -16.3550 C   0  0  0  0  0  0  0  0  0  0  0  0
   -6.5390   -1.5940  -19.3070 C   0  0  0  0  0  0  0  0  0  0  0  0
   -7.8730   -4.0240  -15.5510 O   0  0  0  0  0  0  0  0  0  0  0  0
   -4.3860   -0.6860  -19.5350 O   0  0  0  0  0  0  0  0  0  0  0  0
   -1.7200   -1.3270  -18.6090 C   0  0  0  0  0  0  0  0  0  0  0  0
   -4.9470   -1.6660  -17.5140 N   0  0  0  0  0  0  0  0  0  0  0  0
   -3.1340   -3.2460  -17.4790 C   0  0  0  0  0  0  0  0  0  0  0  0
   -0.2960   -1.2060  -18.0150 C   0  0  0  0  0  0  0  0  0  0  0  0
   -8.0070   -3.0020  -16.2440 C   0  0  0  0  0  0  0  0  0  0  0  0
   -2.8890   -4.2420  -16.6080 C   0  0  0  0  0  0  0  0  0  0  0  0
   -7.1320   -2.4740  -17.1730 C   0  0  0  0  0  0  0  0  0  0  0  0
   -5.8700   -2.1330  -16.6150 C   0  0  0  0  0  0  0  0  0  0  0  0
   -2.1710   -3.2910  -15.2640 S   0  0  0  0  0  0  0  0  0  0  0  0
   -2.5640   -0.7880  -17.3750 C   0  0  1  0  0  0  0  0  0  0  0  0
   -0.3320   -0.1220  -17.1340 O   0  0  0  0  0  0  0  0  0  0  0  0
   -3.5110   -2.1930  -15.4170 C   0  0  0  0  0  0  0  0  0  0  0  0
   -7.4410   -2.2980  -18.5170 C   0  0  0  0  0  0  0  0  0  0  0  0
   -3.6150   -1.9480  -16.9520 C   0  0  1  0  0  0  0  0  0  0  0  0
   -5.2720   -1.2790  -18.7950 C   0  0  0  0  0  0  0  0  0  0  0  0
  3 20  1  0
  3 18  2  0
  5 20  2  0
  6  9  1  0
  7 13  1  0
  8 19  1  0
  8 11  1  0
  9 16  1  0
 10  1  2  0
 10  4  1  0
 11 14  1  0
 12 13  2  0
 12 10  1  0
 15  6  1  6
 15 19  1  0
 15  2  1  0
 16  2  1  0
 17 14  1  0
 18 12  1  0
 19  7  1  1
 19 17  1  0
 20  7  1  0
M  END
$$$$

     RDKit          3D

 19 20  0  0  0  0  0  0  0  0999 V2000
   -7.5350   -1.9530  -17.8370 C   0  0  0  0  0  0  0  0  0  0  0  0
   -4.9060   -1.0520  -18.1540 C   0  0  0  0  0  0  0  0  0  0  0  0
   -0.7660   -3.1910  -17.7290 C   0  0  0  0  0  0  0  0  0  0  0  0
   -2.9480   -2.8040  -17.2830 C   0  0  0  0  0  0  0  0  0  0  0  0
   -1.8690   -3.5280  -16.8550 O   0  0  0  0  0  0  0  0  0  0  0  0
   -0.3620   -0.8240  -17.3910 C   0  0  0  0  0  0  0  0  0  0  0  0
   -2.5380   -1.7560  -18.1220 C   0  0  0  0  0  0  0  0  0  0  0  0
   -6.5160   -2.3400  -16.8470 N   0  0  0  0  0  0  0  0  0  0  0  0
  -10.0850   -0.6740  -17.1430 C   0  0  0  0  0  0  0  0  0  0  0  0
   -8.7950   -2.6170  -17.3960 C   0  0  0  0  0  0  0  0  0  0  0  0
   -9.5380   -1.8070  -16.4730 O   0  0  0  0  0  0  0  0  0  0  0  0
   -7.3760   -4.0680  -15.2680 O   0  0  0  0  0  0  0  0  0  0  0  0
   -6.9010   -2.6930  -15.4580 C   0  0  0  0  0  0  0  0  0  0  0  0
   -4.2070   -2.8750  -16.8320 C   0  0  0  0  0  0  0  0  0  0  0  0
   -3.5820   -0.9410  -18.5940 C   0  0  0  0  0  0  0  0  0  0  0  0
   -4.6600   -3.8330  -15.9120 F   0  0  0  0  0  0  0  0  0  0  0  0
   -5.1900   -2.0760  -17.2720 C   0  0  0  0  0  0  0  0  0  0  0  0
   -1.0770   -1.7890  -18.2770 C   0  0  2  0  0  0  0  0  0  0  0  0
   -0.6490   -1.6920  -19.7310 C   0  0  0  0  0  0  0  0  0  0  0  0
  1 10  1  0
  1  8  1  0
  2 17  2  0
  3  5  1  0
  4  5  1  0
  4 14  2  0
  7  4  1  0
  8 13  1  0
  9 11  1  0
 10 11  1  0
 13 12  1  0
 14 16  1  0
 15  2  1  0
 15  7  2  0
 17  8  1  0
 17 14  1  0
 18  7  1  0
 18  3  1  0
 18  6  1  1
 19 18  1  0
M  END
$$$$

     RDKit          3D

 19 19  0  0  0  0  0  0  0  0999 V2000
   -6.9620   -2.8700  -16.3860 C   0  0  0  0  0  0  0  0  0  0  0  0
   -8.6210   -3.3620  -16.8650 S   0  0  2  0  0  0  0  0  0  0  0  0
   -6.4720   -1.9390  -17.5660 C   0  0  0  0  0  0  0  0  0  0  0  0
   -6.4570   -1.2180  -19.8650 C   0  0  0  0  0  0  0  0  0  0  0  0
   -7.2770   -0.9810  -20.7500 F   0  0  0  0  0  0  0  0  0  0  0  0
   -1.6810   -2.9410  -14.5720 C   0  0  0  0  0  0  0  0  0  0  0  0
   -9.0340   -4.5420  -16.0690 O   0  0  0  0  0  0  0  0  0  0  0  0
   -3.1370   -0.8890  -17.3410 N   0  0  0  0  0  0  0  0  0  0  0  0
   -7.0350   -1.7230  -18.7810 C   0  0  0  0  0  0  0  0  0  0  0  0
   -5.2080   -1.5050  -17.3250 C   0  0  0  0  0  0  0  0  0  0  0  0
   -2.2050   -2.0440  -17.1730 C   0  0  0  0  0  0  0  0  0  0  0  0
   -8.6420   -3.8910  -18.4390 N   0  0  0  0  0  0  0  0  0  0  0  0
   -2.9650   -3.2250  -16.6350 C   0  0  0  0  0  0  0  0  0  0  0  0
   -5.3220   -0.8010  -20.2580 C   0  0  0  0  0  0  0  0  0  0  0  0
   -4.2430   -1.1090  -18.0570 C   0  0  0  0  0  0  0  0  0  0  0  0
   -4.3100   -0.7910  -19.4250 C   0  0  0  0  0  0  0  0  0  0  0  0
   -2.5370    0.4510  -17.2620 C   0  0  0  0  0  0  0  0  0  0  0  0
   -9.4580   -2.1090  -16.8030 O   0  0  0  0  0  0  0  0  0  0  0  0
   -3.0400   -2.8890  -15.1660 C   0  0  0  0  0  0  0  0  0  0  0  0
  2 18  2  0
  2  1  1  0
  2  7  2  0
  3 10  1  0
  3  1  1  0
  4  9  1  0
  5  4  1  0
  8 17  1  0
  8 11  1  0
  9  3  2  0
 11 13  1  0
  2 12  1  6
 13 19  1  0
 14  4  2  0
 14 16  1  0
 15  8  1  0
 15 10  1  0
 16 15  2  0
 19  6  1  0
M  END
$$$$

     RDKit          3D

 21 24  0  0  0  0  0  0  0  0999 V2000
   -5.0500   -2.1340  -17.4460 N   0  0  0  0  0  0  0  0  0  0  0  0
   -6.4570   -2.1110  -17.3900 C   0  0  0  0  0  0  0  0  0  0  0  0
   -2.9000   -2.6410  -15.3040 C   0  0  0  0  0  0  0  0  0  0  0  0
   -1.9590   -1.0750  -19.0610 C   0  0  2  0  0  0  0  0  0  0  0  0
   -1.4170    0.2440  -18.6680 C   0  0  0  0  0  0  0  0  0  0  0  0
   -6.9340   -4.5870  -14.9560 O   0  0  0  0  0  0  0  0  0  0  0  0
   -4.3220   -1.0010  -18.1050 C   0  0  1  0  0  0  0  0  0  0  0  0
   -1.8440   -3.5400  -15.3920 O   0  0  0  0  0  0  0  0  0  0  0  0
   -3.7870   -0.0840  -20.3360 C   0  0  0  0  0  0  0  0  0  0  0  0
   -7.1160   -1.4870  -18.3120 N   0  0  0  0  0  0  0  0  0  0  0  0
   -2.5980   -0.9190  -20.3390 O   0  0  0  0  0  0  0  0  0  0  0  0
   -8.5310   -2.6770  -16.2550 C   0  0  0  0  0  0  0  0  0  0  0  0
   -9.2210   -2.0210  -17.2190 C   0  0  0  0  0  0  0  0  0  0  0  0
   -5.0300   -3.3860  -15.4050 N   0  0  0  0  0  0  0  0  0  0  0  0
   -7.1960   -2.8370  -16.3660 C   0  0  0  0  0  0  0  0  0  0  0  0
   -2.9330   -1.4720  -17.9040 C   0  0  1  0  0  0  0  0  0  0  0  0
   -8.4450   -1.3920  -18.2520 C   0  0  0  0  0  0  0  0  0  0  0  0
   -4.0110   -3.0940  -16.6200 C   0  0  1  0  0  0  0  0  0  0  0  0
   -2.7810   -2.9320  -17.6000 C   0  0  0  0  0  0  0  0  0  0  0  0
   -6.3480   -3.6810  -15.5510 C   0  0  0  0  0  0  0  0  0  0  0  0
   -4.7980   -0.8410  -19.4940 C   0  0  0  0  0  0  0  0  0  0  0  0
  1  2  1  0
  1 18  1  0
  2 15  2  0
  4  5  1  1
  4 16  1  0
  7 21  1  6
  7 16  1  0
  7  1  1  0
  8  3  1  0
  9 21  1  0
 10 17  2  0
 10  2  1  0
 11  9  1  0
 11  4  1  0
 13 12  2  0
 15 12  1  0
 15 20  1  0
 16 19  1  6
 17 13  1  0
 18 14  1  0
 18  3  1  1
 19 18  1  0
 20 14  1  0
 20  6  2  0
M  END
$$$$

     RDKit          3D

 21 24  0  0  0  0  0  0  0  0999 V2000
   -6.2890   -1.6940  -17.8500 C   0  0  0  0  0  0  0  0  0  0  0  0
   -2.7310   -2.0070  -17.2790 C   0  0  0  0  0  0  0  0  0  0  0  0
   -7.9820   -3.3940  -15.1120 N   0  0  0  0  0  0  0  0  0  0  0  0
   -4.0260   -1.7370  -17.7710 C   0  0  0  0  0  0  0  0  0  0  0  0
    0.6820   -0.8770  -17.8410 C   0  0  0  0  0  0  0  0  0  0  0  0
   -3.0850   -0.5550  -19.4950 N   0  0  0  0  0  0  0  0  0  0  0  0
   -1.6100   -1.4580  -17.9200 C   0  0  0  0  0  0  0  0  0  0  0  0
   -2.5340   -4.3770  -16.7710 C   0  0  0  0  0  0  0  0  0  0  0  0
   -7.1790   -2.8180  -16.0480 C   0  0  0  0  0  0  0  0  0  0  0  0
   -3.2950   -2.6050  -15.1590 O   0  0  0  0  0  0  0  0  0  0  0  0
   -8.6350   -1.7390  -17.4560 F   0  0  0  0  0  0  0  0  0  0  0  0
   -5.6500   -2.9280  -15.8670 S   0  0  0  0  0  0  0  0  0  0  0  0
   -4.1880   -1.0390  -18.8570 C   0  0  0  0  0  0  0  0  0  0  0  0
    0.4680   -0.0890  -18.9650 C   0  0  0  0  0  0  0  0  0  0  0  0
   -7.3370   -2.0890  -17.2360 C   0  0  0  0  0  0  0  0  0  0  0  0
   -2.5400   -2.9170  -16.2640 C   0  0  2  0  0  0  0  0  0  0  0  0
   -5.8800   -0.9410  -19.2350 S   0  0  0  0  0  0  0  0  0  0  0  0
   -0.2680   -1.7450  -17.4360 C   0  0  0  0  0  0  0  0  0  0  0  0
   -0.7540   -0.0020  -19.6220 C   0  0  0  0  0  0  0  0  0  0  0  0
   -1.8560   -0.7100  -19.0500 C   0  0  0  0  0  0  0  0  0  0  0  0
   -5.1780   -2.1510  -17.1540 C   0  0  0  0  0  0  0  0  0  0  0  0
  1 15  1  0
  1 21  2  0
  2 16  1  0
  4  2  2  0
  4 21  1  0
  5 18  1  0
  6 20  1  0
  6 13  2  0
  7 18  2  0
  7  2  1  0
  9 12  1  0
  9  3  1  0
 11 15  1  0
 13  4  1  0
 14  5  2  0
 15  9  2  0
 16  8  1  6
 16 10  1  0
 17 13  1  0
 17  1  1  0
 19 20  2  0
 19 14  1  0
 20  7  1  0
 21 12  1  0
M  END
$$$$

     RDKit          3D

 20 20  0  0  0  0  0  0  0  0999 V2000
   -7.6870   -3.3530  -15.7310 C   0  0  0  0  0  0  0  0  0  0  0  0
   -2.8010   -1.5560  -18.1440 C   0  0  0  0  0  0  0  0  0  0  0  0
   -4.9990   -2.0890  -17.3580 C   0  0  0  0  0  0  0  0  0  0  0  0
   -4.1460   -1.5280  -18.2280 C   0  0  0  0  0  0  0  0  0  0  0  0
   -2.3840    1.0180  -19.8230 O   0  0  0  0  0  0  0  0  0  0  0  0
   -6.6070   -0.8020  -19.9020 O   0  0  0  0  0  0  0  0  0  0  0  0
   -2.0560   -0.8580  -19.1190 N   0  0  0  0  0  0  0  0  0  0  0  0
   -7.5240   -2.3760  -16.8790 C   0  0  2  0  0  0  0  0  0  0  0  0
   -9.8640   -1.7840  -17.3220 N   0  0  0  0  0  0  0  0  0  0  0  0
   -2.6870   -3.3970  -15.0880 F   0  0  0  0  0  0  0  0  0  0  0  0
   -8.7510   -1.9850  -17.3540 C   0  0  0  0  0  0  0  0  0  0  0  0
   -6.7820   -3.5830  -14.9800 O   0  0  0  0  0  0  0  0  0  0  0  0
   -6.3910   -1.9020  -17.6320 C   0  0  0  0  0  0  0  0  0  0  0  0
   -6.7740   -1.3350  -18.8860 C   0  0  0  0  0  0  0  0  0  0  0  0
   -8.7510   -4.0800  -15.8340 O   0  0  0  0  0  0  0  0  0  0  0  0
   -4.5050   -2.7540  -16.1970 C   0  0  0  0  0  0  0  0  0  0  0  0
   -2.9510   -0.1390  -19.9480 C   0  0  0  0  0  0  0  0  0  0  0  0
   -3.7360   -0.3170  -20.8540 O   0  0  0  0  0  0  0  0  0  0  0  0
   -2.3130   -2.0580  -17.0740 C   0  0  0  0  0  0  0  0  0  0  0  0
   -3.1830   -2.7750  -16.0490 C   0  0  0  0  0  0  0  0  0  0  0  0
  1 12  1  0
  2 19  2  0
  3 16  1  0
  4  2  1  0
  4  3  2  0
  6 14  2  0
  7  2  1  0
  8 11  1  6
  8  1  1  0
 11  9  3  0
 13  3  1  0
 13  8  1  0
 14 13  2  0
 15  1  2  0
 16 20  2  0
 17  5  1  0
 17  7  1  0
 18 17  2  0
 19 20  1  0
 20 10  1  0
M  END
$$$$

     RDKit          3D

 22 25  0  0  0  0  0  0  0  0999 V2000
   -4.3920   -2.9240  -16.0240 N   0  0  0  0  0  0  0  0  0  0  0  0
   -6.8210   -1.1510  -18.9640 C   0  0  0  0  0  0  0  0  0  0  0  0
   -0.4200    0.4980  -19.6740 C   0  0  0  0  0  0  0  0  0  0  0  0
   -9.3990   -4.2290  -15.2450 O   0  0  0  0  0  0  0  0  0  0  0  0
   -8.8800   -1.5750  -17.6430 O   0  0  0  0  0  0  0  0  0  0  0  0
   -9.5600   -2.7160  -17.0690 C   0  0  0  0  0  0  0  0  0  0  0  0
   -0.9530   -0.5770  -20.5240 C   0  0  0  0  0  0  0  0  0  0  0  0
   -5.1540   -2.2250  -16.9050 C   0  0  0  0  0  0  0  0  0  0  0  0
   -3.2570   -1.0120  -17.8400 C   0  0  0  0  0  0  0  0  0  0  0  0
   -1.7700   -0.7650  -16.2300 F   0  0  0  0  0  0  0  0  0  0  0  0
   -8.7960   -3.4410  -16.0420 C   0  0  0  0  0  0  0  0  0  0  0  0
   -3.1010   -2.5860  -15.9930 C   0  0  0  0  0  0  0  0  0  0  0  0
   -7.3430   -3.3470  -15.9390 C   0  0  0  0  0  0  0  0  0  0  0  0
   -2.6540   -1.4220  -16.6890 C   0  0  0  0  0  0  0  0  0  0  0  0
   -2.4680   -0.6860  -20.2240 C   0  0  0  0  0  0  0  0  0  0  0  0
   -4.5720   -1.3670  -17.9760 C   0  0  0  0  0  0  0  0  0  0  0  0
   -2.5450   -0.2790  -18.8240 N   0  0  0  0  0  0  0  0  0  0  0  0
   -6.6390   -2.3610  -16.8780 C   0  0  0  0  0  0  0  0  0  0  0  0
   -5.4540   -1.0490  -19.0070 C   0  0  0  0  0  0  0  0  0  0  0  0
   -7.4200   -1.7380  -17.8330 C   0  0  0  0  0  0  0  0  0  0  0  0
   -1.4730    0.7360  -18.4820 C   0  0  0  0  0  0  0  0  0  0  0  0
   -2.1780   -3.4470  -15.2660 C   0  0  0  0  0  0  0  0  0  0  0  0
  1 12  2  0
  2 20  2  0
  3 21  1  0
  5  6  1  0
  6 11  1  0
  7 15  1  0
  7  3  1  0
  8 18  2  0
  8  1  1  0
  9 14  2  0
 11 13  1  0
 11  4  2  0
 12 22  1  0
 14 10  1  0
 14 12  1  0
 15 17  1  0
 16  9  1  0
 16  8  1  0
 17 21  1  0
 17  9  1  0
 18 13  1  0
 19  2  1  0
 19 16  2  0
 20  5  1  0
 20 18  1  0
M  END
$$$$

     RDKit          3D

 20 22  0  0  0  0  0  0  0  0999 V2000
   -8.8680   -3.6810  -16.7380 O   0  0  0  0  0  0  0  0  0  0  0  0
   -7.4850   -4.0420  -15.1060 O   0  0  0  0  0  0  0  0  0  0  0  0
   -2.6100   -1.5950  -19.8810 C   0  0  0  0  0  0  0  0  0  0  0  0
   -4.4720   -3.0190  -16.0620 C   0  0  0  0  0  0  0  0  0  0  0  0
   -7.2880   -2.0890  -16.5920 C   0  0  2  0  0  0  0  0  0  0  0  0
   -0.5020   -1.7530  -18.9780 C   0  0  0  0  0  0  0  0  0  0  0  0
   -4.1920   -0.8900  -18.1090 C   0  0  0  0  0  0  0  0  0  0  0  0
   -7.5730   -2.6180  -18.8260 F   0  0  0  0  0  0  0  0  0  0  0  0
   -6.2490   -0.9070  -18.1090 O   0  0  0  0  0  0  0  0  0  0  0  0
   -8.4020   -0.4410  -17.7030 C   0  0  0  0  0  0  0  0  0  0  0  0
   -2.3540   -2.4150  -17.5670 C   0  0  2  0  0  0  0  0  0  0  0  0
   -7.9570   -3.4020  -16.0880 C   0  0  0  0  0  0  0  0  0  0  0  0
   -5.2920   -1.4920  -17.6270 C   0  0  2  0  0  0  0  0  0  0  0  0
   -1.0340   -1.6600  -17.6050 C   0  0  0  0  0  0  0  0  0  0  0  0
   -7.5370   -1.5780  -17.8630 C   0  0  2  0  0  0  0  0  0  0  0  0
   -3.1080   -1.5340  -18.4970 C   0  0  1  0  0  0  0  0  0  0  0  0
   -1.1970   -1.0010  -20.0050 C   0  0  0  0  0  0  0  0  0  0  0  0
   -3.0730   -2.4420  -16.0850 C   0  0  0  0  0  0  0  0  0  0  0  0
   -5.6430   -1.9670  -16.2700 C   0  0  2  0  0  0  0  0  0  0  0  0
   -9.6760   -1.1730  -17.7590 O   0  0  0  0  0  0  0  0  0  0  0  0
  1 12  2  0
  5 19  1  0
  5 12  1  6
  6 14  1  0
  9 15  1  0
  9 13  1  0
 11 14  1  1
 11 18  1  0
 12  2  1  0
 13  7  1  1
 13 19  1  0
 15  8  1  6
 15 10  1  0
 15  5  1  0
 16  3  1  6
 16  7  1  0
 16 11  1  0
 17  3  1  0
 17  6  1  0
 18  4  1  0
 19  4  1  6
 20 10  1  0
M  END
$$$$

     RDKit          3D

 15 17  0  0  0  0  0  0  0  0999 V2000
   -5.9540   -1.6950  -18.6110 C   0  0  0  0  0  0  0  0  0  0  0  0
   -5.5680   -2.2280  -17.3550 C   0  0  0  0  0  0  0  0  0  0  0  0
   -2.0580    0.2660  -18.1760 C   0  0  0  0  0  0  0  0  0  0  0  0
   -5.5930   -3.1310  -15.4710 N   0  0  0  0  0  0  0  0  0  0  0  0
   -7.8420   -2.5160  -16.6400 C   0  0  0  0  0  0  0  0  0  0  0  0
   -4.2450   -2.9330  -15.6000 N   0  0  0  0  0  0  0  0  0  0  0  0
   -4.2800   -2.2890  -16.7740 N   0  0  0  0  0  0  0  0  0  0  0  0
   -0.8600   -1.8490  -18.3260 C   0  0  0  0  0  0  0  0  0  0  0  0
   -1.6620   -2.2030  -17.1010 C   0  0  0  0  0  0  0  0  0  0  0  0
   -3.0450   -1.8720  -17.3660 C   0  0  2  0  0  0  0  0  0  0  0  0
   -7.3740   -1.6570  -18.8940 C   0  0  0  0  0  0  0  0  0  0  0  0
   -8.3150   -2.0640  -17.8940 C   0  0  0  0  0  0  0  0  0  0  0  0
   -1.3720   -0.8350  -19.0010 C   0  0  0  0  0  0  0  0  0  0  0  0
   -6.4560   -2.6660  -16.4560 C   0  0  0  0  0  0  0  0  0  0  0  0
   -3.2090   -0.3260  -17.3480 C   0  0  0  0  0  0  0  0  0  0  0  0
  1  2  2  0
  2  7  1  0
  2 14  1  0
  3 15  1  0
  5 14  2  0
  6  4  2  0
  7  6  1  0
  8  9  1  0
 10 15  1  0
 10  9  1  0
 10  7  1  1
 11  1  1  0
 11 12  2  0
 12  5  1  0
 13  8  1  0
 13  3  1  0
 14  4  1  0
M  END
$$$$

     RDKit          3D

 21 22  0  0  0  0  0  0  0  0999 V2000
   -6.3620   -1.0200  -18.9930 O   0  0  0  0  0  0  0  0  0  0  0  0
   -2.3510   -3.1120  -16.7930 O   0  0  0  0  0  0  0  0  0  0  0  0
    0.4700   -0.3310  -20.5730 C   0  0  0  0  0  0  0  0  0  0  0  0
   -4.3040   -2.5610  -16.2580 C   0  0  0  0  0  0  0  0  0  0  0  0
   -4.6520   -1.7370  -17.2600 C   0  0  1  0  0  0  0  0  0  0  0  0
   -3.1560   -2.3460  -16.4060 N   0  0  0  0  0  0  0  0  0  0  0  0
   -6.7890   -2.2290  -17.0040 N   0  0  0  0  0  0  0  0  0  0  0  0
   -7.7570   -3.5210  -15.2000 C   0  0  0  0  0  0  0  0  0  0  0  0
    1.0290   -1.8030  -20.8140 O   0  0  0  0  0  0  0  0  0  0  0  0
   -3.5120   -1.3030  -18.1700 N   0  0  0  0  0  0  0  0  0  0  0  0
    0.7720   -2.5740  -19.6830 C   0  0  0  0  0  0  0  0  0  0  0  0
   -0.8110   -0.1840  -19.8900 C   0  0  0  0  0  0  0  0  0  0  0  0
   -1.6520   -1.3910  -19.7400 C   0  0  1  0  0  0  0  0  0  0  0  0
   -2.6010   -1.2450  -15.7420 O   0  0  0  0  0  0  0  0  0  0  0  0
   -7.0510   -1.5390  -20.1310 C   0  0  0  0  0  0  0  0  0  0  0  0
   -5.3290   -3.0980  -15.6070 N   0  0  0  0  0  0  0  0  0  0  0  0
   -6.0850   -1.7740  -17.8700 C   0  0  0  0  0  0  0  0  0  0  0  0
   -6.5860   -3.0160  -16.0580 C   0  0  2  0  0  0  0  0  0  0  0  0
   -0.7920   -2.7400  -19.6390 C   0  0  0  0  0  0  0  0  0  0  0  0
   -3.0460   -0.5680  -19.0510 C   0  0  0  0  0  0  0  0  0  0  0  0
   -3.6260    0.2030  -19.8990 O   0  0  0  0  0  0  0  0  0  0  0  0
  1 17  1  0
  2  6  1  0
  3 12  2  0
  4 16  2  0
  5 10  1  6
  5  4  1  0
  6  4  1  0
  6 14  2  0
  7 18  1  0
  9  3  1  0
  9 11  1  0
 11 19  1  0
 12 13  1  0
 13 19  1  0
 13 20  1  1
 15  1  1  0
 17  5  1  0
 17  7  2  0
 18 16  1  0
 18  8  1  1
 20 10  1  0
 21 20  2  0
M  CHG  2   2  -1   6   1
M  END
$$$$

     RDKit          3D

 19 20  0  0  0  0  0  0  0  0999 V2000
   -7.2810   -0.8460  -19.5950 O   0  0  0  0  0  0  0  0  0  0  0  0
   -1.3370   -0.3130  -18.9260 O   0  0  0  0  0  0  0  0  0  0  0  0
   -7.7640   -2.5960  -18.2600 N   0  0  0  0  0  0  0  0  0  0  0  0
   -6.6570   -2.9390  -19.3960 O   0  0  0  0  0  0  0  0  0  0  0  0
   -6.6880   -1.8700  -18.5810 C   0  0  1  0  0  0  0  0  0  0  0  0
   -8.5660   -2.3420  -17.0250 C   0  0  0  0  0  0  0  0  0  0  0  0
   -3.6460   -0.3260  -19.6670 O   0  0  0  0  0  0  0  0  0  0  0  0
   -4.4090   -1.1270  -19.2010 N   0  0  0  0  0  0  0  0  0  0  0  0
   -8.4500   -3.3860  -16.0560 C   0  0  0  0  0  0  0  0  0  0  0  0
   -9.1490   -4.3360  -16.2470 O   0  0  0  0  0  0  0  0  0  0  0  0
   -7.6980   -3.2540  -15.0430 O   0  0  0  0  0  0  0  0  0  0  0  0
   -0.5200   -1.4130  -17.1360 N   0  0  0  0  0  0  0  0  0  0  0  0
   -0.8120   -2.4480  -16.0800 C   0  0  0  0  0  0  0  0  0  0  0  0
   -2.8080   -1.9460  -17.5470 C   0  0  2  0  0  0  0  0  0  0  0  0
   -3.0600   -3.4720  -15.5770 O   0  0  0  0  0  0  0  0  0  0  0  0
   -4.2410   -1.6850  -17.9970 C   0  0  1  0  0  0  0  0  0  0  0  0
   -5.6330   -1.7830  -17.3020 C   0  0  0  0  0  0  0  0  0  0  0  0
   -2.3840   -2.5110  -16.1990 C   0  0  1  0  0  0  0  0  0  0  0  0
   -1.4740   -0.9920  -17.8920 C   0  0  0  0  0  0  0  0  0  0  0  0
  2 19  2  0
  3  6  1  0
  4  5  1  0
  4  3  1  0
  5  1  1  6
  5  3  1  0
  5 17  1  0
  6  9  1  0
  7  8  2  0
  8 16  1  0
  9 11  1  0
 10  9  2  0
 12 13  1  0
 14 16  1  0
 14 18  1  0
 16 17  1  1
 18 13  1  0
 18 15  1  6
 14 19  1  1
 19 12  1  0
M  END
$$$$

     RDKit          3D

 20 20  0  0  0  0  0  0  0  0999 V2000
   -8.3810   -4.4550  -15.8300 O   0  0  0  0  0  0  0  0  0  0  0  0
   -4.6310   -1.1370  -19.4060 O   0  0  0  0  0  0  0  0  0  0  0  0
   -7.8710   -3.2280  -15.5030 P   0  0  1  0  0  0  0  0  0  0  0  0
   -6.5150   -3.1700  -19.6400 O   0  0  0  0  0  0  0  0  0  0  0  0
   -8.9010   -0.8350  -16.5250 C   0  0  0  0  0  0  0  0  0  0  0  0
   -7.7210   -2.4000  -18.0130 N   0  0  0  0  0  0  0  0  0  0  0  0
   -8.3700   -2.7160  -14.2710 O   0  0  0  0  0  0  0  0  0  0  0  0
   -6.4140   -3.3750  -15.4840 O   0  0  0  0  0  0  0  0  0  0  0  0
   -3.1510    0.3260  -20.0450 O   0  0  0  0  0  0  0  0  0  0  0  0
   -3.6030   -0.3940  -19.0960 C   0  0  0  0  0  0  0  0  0  0  0  0
   -6.5270   -2.3840  -18.6080 C   0  0  0  0  0  0  0  0  0  0  0  0
   -3.3860   -1.2870  -16.8210 C   0  0  2  0  0  0  0  0  0  0  0  0
   -5.3490   -1.5700  -18.1890 C   0  0  1  0  0  0  0  0  0  0  0  0
   -8.4490   -2.2400  -16.8870 C   0  0  1  0  0  0  0  0  0  0  0  0
   -0.9340   -2.1260  -16.8850 C   0  0  0  0  0  0  0  0  0  0  0  0
   -4.3470   -2.3620  -17.3680 C   0  0  0  0  0  0  0  0  0  0  0  0
   -0.9960   -3.4970  -16.7550 O   0  0  0  0  0  0  0  0  0  0  0  0
   -3.0870   -0.1680  -17.7240 C   0  0  1  0  0  0  0  0  0  0  0  0
   -2.0370   -1.5640  -16.0810 C   0  0  0  0  0  0  0  0  0  0  0  0
   -1.7700    0.4730  -17.5830 O   0  0  0  0  0  0  0  0  0  0  0  0
  1  3  2  0
  2 10  1  0
  2 13  1  0
  3  8  1  1
  3  7  1  0
  4 11  2  0
  6 14  1  0
  9 10  2  0
 10 18  1  0
 11  6  1  0
 12 19  1  6
 13 11  1  6
 13 16  1  0
 14  5  1  1
 14  3  1  0
 15 17  1  0
 15 19  1  0
 16 12  1  0
 18 20  1  6
 18 12  1  0
M  END
$$$$

     RDKit          3D

 23 25  0  0  0  0  0  0  0  0999 V2000
   -1.3720    0.3290  -17.5100 C   0  0  1  0  0  0  0  0  0  0  0  0
   -3.6130   -2.5050  -15.9520 C   0  0  0  0  0  0  0  0  0  0  0  0
   -2.8550   -0.1580  -17.6530 C   0  0  0  0  0  0  0  0  0  0  0  0
   -6.5330   -2.8480  -16.7270 C   0  0  1  0  0  0  0  0  0  0  0  0
   -6.7530   -2.4050  -19.1770 C   0  0  0  0  0  0  0  0  0  0  0  0
   -6.9400   -1.4030  -20.1290 N   0  0  0  0  0  0  0  0  0  0  0  0
   -6.3910   -1.8250  -17.7780 C   0  0  1  0  0  0  0  0  0  0  0  0
   -5.2170   -2.8920  -16.0160 C   0  0  0  0  0  0  0  0  0  0  0  0
   -1.2110    1.6510  -18.2190 O   0  0  0  0  0  0  0  0  0  0  0  0
   -6.8720   -3.5310  -19.4000 O   0  0  0  0  0  0  0  0  0  0  0  0
   -1.1580    1.3570  -16.7870 C   0  0  0  0  0  0  0  0  0  0  0  0
   -1.4030   -1.4810  -19.0670 C   0  0  0  0  0  0  0  0  0  0  0  0
   -2.6950   -1.7470  -18.1600 C   0  0  1  0  0  0  0  0  0  0  0  0
   -5.5180   -3.4170  -15.0110 O   0  0  0  0  0  0  0  0  0  0  0  0
   -0.2240   -1.8170  -16.6770 C   0  0  0  0  0  0  0  0  0  0  0  0
   -9.1910   -2.9190  -17.1660 O   0  0  0  0  0  0  0  0  0  0  0  0
   -8.0590   -2.9390  -16.1220 S   0  0  2  0  0  0  0  0  0  0  0  0
   -1.2300   -2.8920  -16.4440 C   0  0  0  0  0  0  0  0  0  0  0  0
   -8.3630   -1.7790  -15.6330 O   0  0  0  0  0  0  0  0  0  0  0  0
   -0.3910   -0.9800  -18.0350 C   0  0  2  0  0  0  0  0  0  0  0  0
   -2.6300   -2.4680  -16.9030 N   0  0  0  0  0  0  0  0  0  0  0  0
   -6.6690   -0.6920  -17.3520 F   0  0  0  0  0  0  0  0  0  0  0  0
   -8.0780   -4.1950  -15.3060 O   0  0  0  0  0  0  0  0  0  0  0  0
  1  3  1  1
  1 11  1  0
  4 17  1  0
  4  8  1  1
  5  7  1  0
  6  5  1  0
  7 22  1  1
  7  4  1  0
  8  2  1  0
  8 14  2  0
  9  1  1  0
  9 11  1  0
 10  5  2  0
 13 12  1  0
 13  3  1  1
 13 21  1  0
 15 18  1  0
 17 16  1  6
 17 19  1  0
 17 23  1  0
 20 12  1  0
 20  1  1  0
 20 15  1  1
 21 18  1  0
 21  2  1  0
M  END
$$$$

     RDKit          3D

 20 21  0  0  0  0  0  0  0  0999 V2000
   -9.8060   -1.6500  -17.0410 C   0  0  0  0  0  0  0  0  0  0  0  0
   -8.4450   -2.4380  -16.8430 C   0  0  0  0  0  0  0  0  0  0  0  0
   -1.3340   -0.8520  -18.0610 O   0  0  0  0  0  0  0  0  0  0  0  0
   -1.6230   -3.2600  -14.9870 O   0  0  0  0  0  0  0  0  0  0  0  0
   -7.5820   -2.4860  -17.8510 N   0  0  0  0  0  0  0  0  0  0  0  0
   -0.8920   -3.3580  -17.0010 O   0  0  0  0  0  0  0  0  0  0  0  0
   -5.7930   -1.6180  -18.8030 C   0  0  0  0  0  0  0  0  0  0  0  0
   -0.4330    1.2240  -17.5250 O   0  0  0  0  0  0  0  0  0  0  0  0
   -8.2780   -3.0010  -15.8040 O   0  0  0  0  0  0  0  0  0  0  0  0
   -2.7140   -1.9320  -16.7070 C   0  0  1  0  0  0  0  0  0  0  0  0
   -1.6590   -2.9070  -16.1440 C   0  0  0  0  0  0  0  0  0  0  0  0
   -6.6670   -1.3540  -19.8570 O   0  0  0  0  0  0  0  0  0  0  0  0
   -5.2360   -2.5790  -16.6420 C   0  0  0  0  0  0  0  0  0  0  0  0
   -3.9780   -2.2500  -16.8300 C   0  0  1  0  0  0  0  0  0  0  0  0
   -2.0680   -0.6990  -16.8580 C   0  0  0  0  0  0  0  0  0  0  0  0
   -6.2390   -2.2660  -17.6910 C   0  0  0  0  0  0  0  0  0  0  0  0
   -4.5460   -1.1360  -18.9950 C   0  0  0  0  0  0  0  0  0  0  0  0
   -0.3090    0.0620  -18.4020 C   0  0  0  0  0  0  0  0  0  0  0  0
   -3.7470   -1.3630  -17.7720 N   0  0  0  0  0  0  0  0  0  0  0  0
   -4.1090   -0.5010  -19.9620 O   0  0  0  0  0  0  0  0  0  0  0  0
  1  2  1  0
  2  9  2  0
  3 15  1  0
  5 16  1  0
  5  2  1  0
  6 11  2  0
  7 12  1  0
  7 16  1  0
 10 15  1  1
 10 11  1  0
 11  4  1  0
 14 10  1  0
 14 13  1  1
 16 13  2  0
 17  7  1  0
 17 19  1  0
 18  3  1  0
 18  8  1  0
 19 14  1  0
 19 10  1  0
 20 17  2  0
M  END
$$$$

     RDKit          3D

 19 20  0  0  0  0  0  0  0  0999 V2000
   -7.4920   -1.3810  -18.9200 C   0  0  0  0  0  0  0  0  0  0  0  0
   -3.6660   -1.1840  -18.8500 C   0  0  0  0  0  0  0  0  0  0  0  0
   -8.1100   -3.4530  -15.7380 C   0  0  0  0  0  0  0  0  0  0  0  0
   -5.0660   -2.2510  -16.9700 C   0  0  0  0  0  0  0  0  0  0  0  0
   -7.5940   -2.5910  -16.8330 C   0  0  1  0  0  0  0  0  0  0  0  0
   -0.5480   -3.3160  -18.9520 C   0  0  0  0  0  0  0  0  0  0  0  0
   -5.0110   -1.5540  -18.2750 C   0  0  0  0  0  0  0  0  0  0  0  0
   -3.6370   -0.5240  -19.9120 O   0  0  0  0  0  0  0  0  0  0  0  0
   -6.1490   -1.3010  -19.0360 C   0  0  0  0  0  0  0  0  0  0  0  0
   -2.2370   -1.9810  -16.8720 C   0  0  0  0  0  0  0  0  0  0  0  0
   -8.9940   -4.3470  -15.9150 O   0  0  0  0  0  0  0  0  0  0  0  0
   -4.2370   -2.6010  -15.8180 C   0  0  0  0  0  0  0  0  0  0  0  0
   -7.4110   -3.4300  -14.6450 O   0  0  0  0  0  0  0  0  0  0  0  0
   -0.3440   -0.8430  -19.3770 C   0  0  0  0  0  0  0  0  0  0  0  0
   -2.4650   -1.5460  -18.1380 C   0  0  1  0  0  0  0  0  0  0  0  0
   -1.0380   -1.8610  -18.6660 C   0  0  1  0  0  0  0  0  0  0  0  0
   -6.3320   -2.7480  -16.6250 N   0  0  0  0  0  0  0  0  0  0  0  0
   -2.9030   -2.5140  -15.7760 C   0  0  0  0  0  0  0  0  0  0  0  0
   -8.3350   -2.0220  -17.9280 C   0  0  0  0  0  0  0  0  0  0  0  0
  1 19  1  0
  2  7  1  0
  2 15  1  0
  3 13  1  0
  4 17  1  0
  4 12  1  0
  5 17  1  0
  5  3  1  6
 16  6  1  6
  7  4  2  0
  8  2  2  0
  9  1  2  0
  9  7  1  0
 10 18  1  0
 11  3  2  0
 12 18  2  0
 14 16  1  0
 15 16  1  0
 15 10  1  6
 19  5  1  0
M  END
$$$$

     RDKit          3D

 18 20  0  0  0  0  0  0  0  0999 V2000
   -5.8510   -2.3510  -17.3620 C   0  0  2  0  0  0  0  0  0  0  0  0
   -0.6780   -1.1300  -18.1300 C   0  0  0  0  0  0  0  0  0  0  0  0
   -8.0530   -3.7750  -15.2670 O   0  0  0  0  0  0  0  0  0  0  0  0
   -2.0260   -1.1210  -18.7370 C   0  0  0  0  0  0  0  0  0  0  0  0
   -5.9800   -2.8610  -16.1410 C   0  0  0  0  0  0  0  0  0  0  0  0
   -4.5650   -0.8280  -19.3900 C   0  0  0  0  0  0  0  0  0  0  0  0
   -8.0600   -1.9840  -17.0690 C   0  0  2  0  0  0  0  0  0  0  0  0
   -3.0100   -1.4420  -17.9700 C   0  0  0  0  0  0  0  0  0  0  0  0
   -5.1320   -1.3260  -17.4300 O   0  0  0  0  0  0  0  0  0  0  0  0
   -2.2710   -0.5530  -19.9530 C   0  0  0  0  0  0  0  0  0  0  0  0
   -3.5530   -0.4390  -20.2610 C   0  0  0  0  0  0  0  0  0  0  0  0
   -9.2760   -2.3370  -17.2580 C   0  0  0  0  0  0  0  0  0  0  0  0
   -7.1400   -2.3620  -18.2450 C   0  0  1  0  0  0  0  0  0  0  0  0
   -7.4010   -3.2160  -15.9980 C   0  0  0  0  0  0  0  0  0  0  0  0
   -2.4460   -1.9610  -16.4860 S   0  0  0  0  0  0  0  0  0  0  0  0
   -4.2650   -1.2330  -18.1900 C   0  0  0  0  0  0  0  0  0  0  0  0
   -7.3330   -1.4600  -19.2620 O   0  0  0  0  0  0  0  0  0  0  0  0
   -0.9230   -1.4540  -16.7280 C   0  0  0  0  0  0  0  0  0  0  0  0
  1  9  1  1
  1  5  1  0
  2 18  1  0
  4  2  1  0
  4  8  2  0
  5 14  1  0
  6 16  2  0
  7 12  1  6
  7 14  1  0
  8 15  1  0
 10  4  1  0
 11 10  2  0
 11  6  1  0
 13 17  1  6
 13  1  1  0
 13  7  1  0
 14  3  2  0
 16  8  1  0
 16  9  1  0
 18 15  1  0
M  END
$$$$

     RDKit          3D

 22 23  0  0  0  0  0  0  0  0999 V2000
   -1.3520   -1.0150  -19.1670 C   0  0  0  0  0  0  0  0  0  0  0  0
   -9.1850   -2.0400  -17.6090 C   0  0  0  0  0  0  0  0  0  0  0  0
   -7.7210   -1.7400  -17.4030 C   0  0  2  0  0  0  0  0  0  0  0  0
   -5.4640   -1.5970  -18.4580 C   0  0  0  0  0  0  0  0  0  0  0  0
   -1.8360   -1.5100  -17.9710 C   0  0  2  0  0  0  0  0  0  0  0  0
   -3.1270   -2.9980  -15.0490 O   0  0  0  0  0  0  0  0  0  0  0  0
  -10.0400   -0.9480  -16.9760 C   0  0  0  0  0  0  0  0  0  0  0  0
  -10.2340   -0.8080  -15.8050 O   0  0  0  0  0  0  0  0  0  0  0  0
   -6.9230   -1.8910  -18.7100 C   0  0  1  0  0  0  0  0  0  0  0  0
   -4.8550   -1.5170  -17.0700 C   0  0  1  0  0  0  0  0  0  0  0  0
    0.7170   -2.3660  -18.8100 C   0  0  0  0  0  0  0  0  0  0  0  0
   -5.6430   -2.1210  -15.9290 C   0  0  0  0  0  0  0  0  0  0  0  0
    0.6730   -0.7280  -20.5360 C   0  0  0  0  0  0  0  0  0  0  0  0
   -0.8720   -2.0360  -17.0340 C   0  0  0  0  0  0  0  0  0  0  0  0
   -7.1280   -2.5560  -16.2950 C   0  0  0  0  0  0  0  0  0  0  0  0
   -3.4140   -2.0460  -17.1180 N   0  0  0  0  0  0  0  0  0  0  0  0
   -3.3880   -4.3480  -16.7510 O   0  0  0  0  0  0  0  0  0  0  0  0
    0.1490   -2.7370  -17.6340 C   0  0  0  0  0  0  0  0  0  0  0  0
  -10.6120   -0.2430  -17.8280 O   0  0  0  0  0  0  0  0  0  0  0  0
    0.0020   -1.4000  -19.4410 C   0  0  0  0  0  0  0  0  0  0  0  0
   -3.3900   -3.2120  -16.2030 C   0  0  0  0  0  0  0  0  0  0  0  0
   -7.0950   -3.1290  -19.4310 N   0  0  0  0  0  0  0  0  0  0  0  0
  1  5  1  0
  2  7  1  0
  3  2  1  6
  3 15  1  0
  4 10  1  0
  5 16  1  6
  5 14  1  0
  7  8  1  0
  9 22  1  1
  9  4  1  0
  9  3  1  0
 10 16  1  6
 10 12  1  0
 11 18  1  0
 15 12  1  0
 16 21  1  0
 17 21  2  0
 18 14  1  0
 19  7  2  0
 20 13  1  0
 20  1  1  0
 20 11  1  0
 21  6  1  0
M  END
$$$$

     RDKit          3D

 24 27  0  0  0  0  0  0  0  0999 V2000
   -7.4370   -3.2270  -16.8130 C   0  0  0  0  0  0  0  0  0  0  0  0
   -9.9200   -3.1220  -17.1370 C   0  0  0  0  0  0  0  0  0  0  0  0
   -3.3660   -2.5780  -16.2300 C   0  0  0  0  0  0  0  0  0  0  0  0
    1.0690   -2.5420  -17.3070 C   0  0  0  0  0  0  0  0  0  0  0  0
   -8.3260   -1.5810  -18.2150 C   0  0  0  0  0  0  0  0  0  0  0  0
   -7.4050   -1.9830  -17.3740 C   0  0  2  0  0  0  0  0  0  0  0  0
   -1.7970   -2.1660  -16.0450 C   0  0  2  0  0  0  0  0  0  0  0  0
   -2.3980   -3.1560  -15.4800 C   0  0  0  0  0  0  0  0  0  0  0  0
   -0.4860   -0.6920  -17.5440 O   0  0  0  0  0  0  0  0  0  0  0  0
   -8.7320   -3.8650  -16.4650 C   0  0  0  0  0  0  0  0  0  0  0  0
   -2.3070    0.5370  -18.5150 O   0  0  0  0  0  0  0  0  0  0  0  0
    0.3960   -1.7090  -18.3520 C   0  0  2  0  0  0  0  0  0  0  0  0
    0.0530   -3.4510  -16.9210 O   0  0  0  0  0  0  0  0  0  0  0  0
   -6.2850   -1.8020  -18.3410 C   0  0  0  0  0  0  0  0  0  0  0  0
   -2.7290   -0.4360  -18.0550 C   0  0  0  0  0  0  0  0  0  0  0  0
   -0.0920   -1.3110  -19.9480 C   0  0  0  0  0  0  0  0  0  0  0  0
   -6.4800   -1.4140  -19.4580 O   0  0  0  0  0  0  0  0  0  0  0  0
   -9.8870   -0.6930  -16.6190 O   0  0  0  0  0  0  0  0  0  0  0  0
   -1.8020   -1.1750  -17.2260 C   0  0  2  0  0  0  0  0  0  0  0  0
   -4.5900   -2.5150  -16.6870 C   0  0  0  0  0  0  0  0  0  0  0  0
   -9.4840   -1.7340  -17.1650 C   0  0  0  0  0  0  0  0  0  0  0  0
   -4.0750   -0.5410  -18.1720 C   0  0  0  0  0  0  0  0  0  0  0  0
   -4.9650   -1.6280  -17.7820 C   0  0  2  0  0  0  0  0  0  0  0  0
   -0.2640   -2.4620  -15.8530 C   0  0  0  0  0  0  0  0  0  0  0  0
  1 10  1  0
  2 10  1  0
  3  7  1  0
  3  8  1  0
  4 13  1  0
  5  6  1  0
  5 21  1  0
  6 14  1  6
  6  1  1  0
  7 24  1  6
  7  8  1  0
 19  9  1  1
 11 15  2  0
 12 16  1  6
 12  9  1  0
 12  4  1  0
 13 24  1  0
 17 14  2  0
 19 15  1  0
 19  7  1  0
 20  3  2  0
 21  2  1  0
 21 18  2  0
 22 15  1  0
 22 23  1  0
 23 14  1  1
 23 20  1  0
M  END
$$$$

     RDKit          3D

 19 21  0  0  0  0  0  0  0  0999 V2000
   -5.3560   -2.9780  -15.0240 N   0  0  0  0  0  0  0  0  0  0  0  0
   -1.0160   -2.6070  -17.8390 C   0  0  0  0  0  0  0  0  0  0  0  0
   -7.5900   -3.6160  -14.7860 N   0  0  0  0  0  0  0  0  0  0  0  0
   -1.6980   -0.5540  -20.7750 O   0  0  0  0  0  0  0  0  0  0  0  0
   -2.2230   -1.9800  -17.1030 C   0  0  2  0  0  0  0  0  0  0  0  0
   -4.3020   -2.7900  -16.1100 C   0  0  0  0  0  0  0  0  0  0  0  0
   -6.7610   -2.9500  -19.4710 O   0  0  0  0  0  0  0  0  0  0  0  0
   -4.8660   -2.8390  -17.3540 C   0  0  0  0  0  0  0  0  0  0  0  0
   -2.7520   -0.7210  -17.3610 C   0  0  0  0  0  0  0  0  0  0  0  0
   -2.8390   -2.5800  -15.8640 C   0  0  0  0  0  0  0  0  0  0  0  0
   -8.4920   -4.0020  -16.0320 O   0  0  0  0  0  0  0  0  0  0  0  0
   -6.6780   -3.0870  -15.4260 C   0  0  0  0  0  0  0  0  0  0  0  0
   -2.5490   -0.8680  -18.8020 C   0  0  0  0  0  0  0  0  0  0  0  0
   -1.3040   -0.9360  -19.3460 C   0  0  1  0  0  0  0  0  0  0  0  0
   -0.8190   -1.9540  -19.3860 C   0  0  0  0  0  0  0  0  0  0  0  0
   -8.4510   -2.8220  -16.7430 C   0  0  0  0  0  0  0  0  0  0  0  0
   -6.0570   -1.9990  -17.5290 C   0  0  1  0  0  0  0  0  0  0  0  0
   -6.1400   -1.7540  -18.9010 C   0  0  0  0  0  0  0  0  0  0  0  0
   -7.0040   -2.5230  -16.7430 C   0  0  0  0  0  0  0  0  0  0  0  0
  2  5  1  0
  5 10  1  1
  6 10  1  0
  6  1  1  0
  7 18  1  0
  8  6  1  0
  9  5  1  0
 11  3  1  0
 12  1  2  0
 12  3  1  0
 13  9  1  0
 14  4  1  6
 14 13  1  0
 15 14  1  0
 15  2  1  0
 16 11  1  0
 17 18  1  6
 17  8  1  0
 17 19  1  0
 19 16  1  0
 19 12  1  0
M  END
$$$$

     RDKit          3D

 21 23  0  0  0  0  0  0  0  0999 V2000
   -7.8450   -4.3230  -15.0440 O   0  0  0  0  0  0  0  0  0  0  0  0
   -0.3710   -1.3920  -15.7160 C   0  0  0  0  0  0  0  0  0  0  0  0
   -7.4450   -2.5210  -16.5400 C   0  0  1  0  0  0  0  0  0  0  0  0
   -4.2010   -1.0190  -18.9000 C   0  0  0  0  0  0  0  0  0  0  0  0
   -2.6060   -2.2560  -15.9000 N   0  0  0  0  0  0  0  0  0  0  0  0
   -9.3610   -1.2740  -17.5080 C   0  0  0  0  0  0  0  0  0  0  0  0
   -6.9010   -0.9190  -19.6620 O   0  0  0  0  0  0  0  0  0  0  0  0
   -9.7150   -2.7290  -17.4000 C   0  0  0  0  0  0  0  0  0  0  0  0
   -6.6710   -3.0550  -19.5530 O   0  0  0  0  0  0  0  0  0  0  0  0
   -6.6520   -1.9680  -18.9880 C   0  0  0  0  0  0  0  0  0  0  0  0
   -1.3890   -2.2130  -15.2500 C   0  0  0  0  0  0  0  0  0  0  0  0
   -8.8080   -2.0080  -16.4040 C   0  0  1  0  0  0  0  0  0  0  0  0
   -6.4490   -1.8930  -17.4970 C   0  0  2  0  0  0  0  0  0  0  0  0
   -4.0740   -1.5110  -17.5830 C   0  0  0  0  0  0  0  0  0  0  0  0
   -1.8390   -0.7140  -17.5800 C   0  0  0  0  0  0  0  0  0  0  0  0
   -0.5680   -0.6440  -16.8700 C   0  0  0  0  0  0  0  0  0  0  0  0
   -5.1600   -1.9370  -16.7810 O   0  0  0  0  0  0  0  0  0  0  0  0
   -6.8910   -3.2960  -15.3750 C   0  0  0  0  0  0  0  0  0  0  0  0
   -2.0730   -0.1200  -18.8420 C   0  0  0  0  0  0  0  0  0  0  0  0
   -2.8160   -1.4880  -17.0030 C   0  0  0  0  0  0  0  0  0  0  0  0
   -3.1310   -0.3730  -19.5430 C   0  0  0  0  0  0  0  0  0  0  0  0
  2 11  2  0
  3 12  1  0
  3 18  1  1
  4 14  2  0
  5 11  1  0
  6  8  1  0
 12  6  1  6
  7 10  2  0
  8 12  1  0
  9 10  1  0
 13 10  1  0
 13 17  1  6
 13  3  1  0
 14 20  1  0
 14 17  1  0
 15 20  1  0
 15 16  2  0
 16  2  1  0
 18  1  1  0
 19 15  1  0
 20  5  2  0
 21  4  1  0
 21 19  2  0
M  END
$$$$

     RDKit          3D

 23 27  0  0  0  0  0  0  0  0999 V2000
   -7.5500   -2.4240  -17.9790 C   0  0  1  0  0  0  0  0  0  0  0  0
   -2.3890   -1.2350  -17.4090 C   0  0  0  0  0  0  0  0  0  0  0  0
   -4.3180   -1.1010  -18.6730 C   0  0  0  0  0  0  0  0  0  0  0  0
   -9.2620   -3.9740  -17.1120 C   0  0  0  0  0  0  0  0  0  0  0  0
   -5.9340   -3.2110  -15.6680 N   0  0  0  0  0  0  0  0  0  0  0  0
   -1.4350   -2.4420  -16.8600 C   0  0  0  0  0  0  0  0  0  0  0  0
   -0.1360   -0.4420  -15.6790 N   0  0  0  0  0  0  0  0  0  0  0  0
   -9.7880   -1.4970  -17.0140 C   0  0  0  0  0  0  0  0  0  0  0  0
   -0.5540   -1.8930  -15.7020 C   0  0  0  0  0  0  0  0  0  0  0  0
   -7.3900   -3.4180  -15.7080 C   0  0  1  0  0  0  0  0  0  0  0  0
   -3.5420   -1.5530  -17.6450 C   0  0  0  0  0  0  0  0  0  0  0  0
   -4.1580   -2.3030  -16.5570 C   0  0  0  0  0  0  0  0  0  0  0  0
  -10.3260   -2.9360  -17.3860 C   0  0  0  0  0  0  0  0  0  0  0  0
   -1.6970    0.0310  -17.5320 C   0  0  1  0  0  0  0  0  0  0  0  0
   -5.4310   -2.4890  -16.6630 C   0  0  0  0  0  0  0  0  0  0  0  0
   -8.5380   -1.2730  -17.8330 C   0  0  0  0  0  0  0  0  0  0  0  0
   -0.2940    0.0790  -17.1140 C   0  0  0  0  0  0  0  0  0  0  0  0
   -3.3990   -0.2500  -19.4980 C   0  0  0  0  0  0  0  0  0  0  0  0
   -6.1450   -2.1500  -17.7670 C   0  0  0  0  0  0  0  0  0  0  0  0
   -5.6880   -1.3500  -18.8890 C   0  0  0  0  0  0  0  0  0  0  0  0
   -2.1560    0.3780  -19.0170 C   0  0  0  0  0  0  0  0  0  0  0  0
   -7.9200   -3.6000  -17.0370 N   0  0  0  0  0  0  0  0  0  0  0  0
   -7.7100   -4.6450  -15.0290 O   0  0  0  0  0  0  0  0  0  0  0  0
  1 16  1  1
  1 19  1  0
  1 22  1  0
  2  6  1  0
  3 11  2  0
  6  9  1  0
  9  7  1  0
 10  5  1  0
 10 23  1  1
 11  2  1  0
 11 12  1  0
 13  4  1  0
 13  8  1  0
 14 21  1  0
 14  2  1  0
 14 17  1  6
 15 12  2  0
 15  5  1  0
 16  8  1  0
 17  7  1  0
 18 21  2  0
 18  3  1  0
 19 15  1  0
 20  3  1  0
 20 19  2  0
 22  4  1  0
 22 10  1  0
M  END
$$$$

     RDKit          3D

 22 24  0  0  0  0  0  0  0  0999 V2000
   -3.5590   -0.3050  -20.2150 C   0  0  0  0  0  0  0  0  0  0  0  0
   -2.3340   -0.8900  -20.6840 O   0  0  0  0  0  0  0  0  0  0  0  0
   -6.2600   -1.5830  -17.9560 C   0  0  1  0  0  0  0  0  0  0  0  0
   -9.4390   -0.5520  -16.9600 O   0  0  0  0  0  0  0  0  0  0  0  0
   -3.9500   -0.6530  -17.5050 C   0  0  1  0  0  0  0  0  0  0  0  0
   -9.0780   -1.6290  -17.4740 C   0  0  0  0  0  0  0  0  0  0  0  0
   -1.5810   -1.5180  -17.1820 C   0  0  2  0  0  0  0  0  0  0  0  0
   -9.8940   -2.3220  -18.0310 O   0  0  0  0  0  0  0  0  0  0  0  0
   -3.3700   -0.7050  -18.8310 C   0  0  2  0  0  0  0  0  0  0  0  0
   -7.6610   -1.9910  -17.3420 C   0  0  0  0  0  0  0  0  0  0  0  0
   -8.0700   -3.8120  -15.7940 C   0  0  0  0  0  0  0  0  0  0  0  0
   -4.8650   -1.9770  -17.3730 C   0  0  2  0  0  0  0  0  0  0  0  0
   -7.1190   -2.8890  -16.5450 C   0  0  0  0  0  0  0  0  0  0  0  0
   -2.4680   -2.5090  -16.5840 C   0  0  1  0  0  0  0  0  0  0  0  0
   -0.4290   -0.9850  -16.7160 O   0  0  0  0  0  0  0  0  0  0  0  0
   -3.4140   -3.0770  -17.9910 S   0  0  0  0  0  0  0  0  0  0  0  0
   -7.7200   -3.8870  -14.5680 O   0  0  0  0  0  0  0  0  0  0  0  0
   -6.5160   -1.4580  -19.3020 O   0  0  0  0  0  0  0  0  0  0  0  0
   -2.4820   -0.4770  -17.8080 C   0  0  1  0  0  0  0  0  0  0  0  0
   -5.7540   -3.0160  -16.2710 C   0  0  0  0  0  0  0  0  0  0  0  0
   -9.0320   -4.5030  -16.3770 O   0  0  0  0  0  0  0  0  0  0  0  0
   -2.3660   -2.9210  -15.1270 C   0  0  0  0  0  0  0  0  0  0  0  0
  9  1  1  6
  2  1  1  0
  3 18  1  6
  3 12  1  0
  3 10  1  0
  5 12  1  0
  6 10  1  0
  6  4  1  0
  7 15  1  1
  7 14  1  0
  8  6  2  0
 19  9  1  6
  5  9  1  6
 10 13  2  0
 11 17  1  0
 12 20  1  1
 13 20  1  0
 13 11  1  0
 14 22  1  6
 16 12  1  0
 16 14  1  0
 19  5  1  0
 19  7  1  0
 21 11  2  0
M  END
$$$$

     RDKit          3D

 22 24  0  0  0  0  0  0  0  0999 V2000
   -9.5020   -4.4290  -16.9810 N   0  0  0  0  0  0  0  0  0  0  0  0
   -5.7720   -3.1960  -15.3500 N   0  0  0  0  0  0  0  0  0  0  0  0
   -2.4820   -3.2630  -15.8680 C   0  0  0  0  0  0  0  0  0  0  0  0
   -1.8190   -0.9650  -19.7740 C   0  0  2  0  0  0  0  0  0  0  0  0
   -9.7360   -2.0050  -17.4340 O   0  0  0  0  0  0  0  0  0  0  0  0
   -1.7400   -1.0090  -17.1050 C   0  0  1  0  0  0  0  0  0  0  0  0
   -5.4990   -2.3350  -16.4060 C   0  0  2  0  0  0  0  0  0  0  0  0
   -2.7460   -1.7650  -16.1340 C   0  0  1  0  0  0  0  0  0  0  0  0
   -6.5540   -1.7640  -18.4660 N   0  0  0  0  0  0  0  0  0  0  0  0
   -6.6320   -2.2970  -17.2430 C   0  0  0  0  0  0  0  0  0  0  0  0
   -2.7830   -0.6060  -20.6950 F   0  0  0  0  0  0  0  0  0  0  0  0
   -4.0160   -1.5290  -18.2680 C   0  0  1  0  0  0  0  0  0  0  0  0
   -1.5890    0.2350  -16.5250 F   0  0  0  0  0  0  0  0  0  0  0  0
   -9.1040   -3.0780  -16.8930 C   0  0  0  0  0  0  0  0  0  0  0  0
   -0.4800   -1.4710  -17.2810 O   0  0  0  0  0  0  0  0  0  0  0  0
   -4.2470   -1.5630  -16.7600 C   0  0  1  0  0  0  0  0  0  0  0  0
   -7.1430   -3.4940  -15.4670 N   0  0  0  0  0  0  0  0  0  0  0  0
   -0.9820    0.2150  -19.7530 F   0  0  0  0  0  0  0  0  0  0  0  0
   -7.6720   -2.9360  -16.4660 C   0  0  0  0  0  0  0  0  0  0  0  0
   -5.3130   -1.4030  -19.1330 C   0  0  0  0  0  0  0  0  0  0  0  0
   -1.0210   -1.7240  -20.4710 F   0  0  0  0  0  0  0  0  0  0  0  0
   -2.6500   -0.8570  -18.3560 C   0  0  2  0  0  0  0  0  0  0  0  0
  1 14  1  0
  4 18  1  1
 22  4  1  6
  5 14  2  0
  6 15  1  6
  6 13  1  0
  6  8  1  0
  7 10  1  0
  7  2  1  6
  8  3  1  6
  9 10  1  0
 10 19  2  0
 11  4  1  0
 12 20  1  6
 12 16  1  0
 14 19  1  0
 16  7  1  6
 16  8  1  0
 17  2  1  0
 19 17  1  0
 20  9  2  0
 21  4  1  0
 22 12  1  0
 22  6  1  0
M  END
$$$$

     RDKit          3D

 22 23  0  0  0  0  0  0  0  0999 V2000
   -7.3650   -3.0740  -16.2370 C   0  0  2  0  0  0  0  0  0  0  0  0
   -8.6320   -2.8890  -16.6320 C   0  0  0  0  0  0  0  0  0  0  0  0
   -4.7360   -1.3460  -18.3130 C   0  0  0  0  0  0  0  0  0  0  0  0
   -7.8480   -1.0500  -17.8910 C   0  0  0  0  0  0  0  0  0  0  0  0
   -3.9170   -2.9300  -16.4960 C   0  0  1  0  0  0  0  0  0  0  0  0
   -2.5080   -0.6680  -20.2330 C   0  0  0  0  0  0  0  0  0  0  0  0
   -3.6040   -1.9320  -17.5450 C   0  0  1  0  0  0  0  0  0  0  0  0
   -8.9100   -1.6110  -17.3880 C   0  0  0  0  0  0  0  0  0  0  0  0
   -9.4820   -3.8200  -16.6730 O   0  0  0  0  0  0  0  0  0  0  0  0
   -1.1050   -1.8760  -17.1100 O   0  0  0  0  0  0  0  0  0  0  0  0
   -1.8480   -1.0590  -19.1440 C   0  0  0  0  0  0  0  0  0  0  0  0
   -2.2420   -1.6690  -17.9870 C   0  0  0  0  0  0  0  0  0  0  0  0
   -4.3080    0.0300  -21.5180 F   0  0  0  0  0  0  0  0  0  0  0  0
   -2.3670   -3.5600  -14.7820 O   0  0  0  0  0  0  0  0  0  0  0  0
   -4.7990   -0.8630  -19.5370 C   0  0  0  0  0  0  0  0  0  0  0  0
   -2.7040   -3.6430  -16.1820 C   0  0  0  0  0  0  0  0  0  0  0  0
   -3.9260   -0.5590  -20.3670 C   0  0  0  0  0  0  0  0  0  0  0  0
   -7.0760   -3.7850  -15.0510 N   0  0  0  0  0  0  0  0  0  0  0  0
   -6.2810   -2.5280  -16.9260 N   0  0  0  0  0  0  0  0  0  0  0  0
   -4.6430   -2.5100  -15.4310 O   0  0  0  0  0  0  0  0  0  0  0  0
  -10.1580   -1.1700  -17.0920 C   0  0  0  0  0  0  0  0  0  0  0  0
   -6.4860   -1.4520  -17.7830 C   0  0  0  0  0  0  0  0  0  0  0  0
  1 18  1  1
  2  1  1  0
  3 22  1  0
  7  3  1  6
  4 22  2  0
  4  8  1  0
  5 16  1  0
  5 20  1  1
  6 11  1  0
  7  5  1  0
  8 21  2  0
  8  2  1  0
  9  2  2  0
 11 12  2  0
 12  7  1  0
 12 10  1  0
 13 17  1  0
 15  3  2  0
 16 14  1  0
 17  6  2  0
 17 15  1  0
 19  1  1  0
 22 19  1  0
M  END
$$$$

     RDKit          3D

 22 22  0  0  0  0  0  0  0  0999 V2000
   -9.3900   -3.1490  -18.1600 O   0  0  0  0  0  0  0  0  0  0  0  0
   -1.0300   -1.6050  -18.1850 C   0  0  0  0  0  0  0  0  0  0  0  0
   -7.5840   -2.5290  -16.6190 O   0  0  0  0  0  0  0  0  0  0  0  0
   -2.1780   -3.1520  -15.0030 C   0  0  0  0  0  0  0  0  0  0  0  0
   -3.5370   -2.0050  -17.9820 C   0  0  1  0  0  0  0  0  0  0  0  0
   -3.0890   -3.1770  -15.8830 C   0  0  0  0  0  0  0  0  0  0  0  0
   -0.4060   -0.8360  -17.0990 C   0  0  0  0  0  0  0  0  0  0  0  0
   -5.7560   -2.0810  -16.6330 C   0  0  0  0  0  0  0  0  0  0  0  0
   -2.4810   -1.2560  -18.3720 C   0  0  2  0  0  0  0  0  0  0  0  0
   -3.1640   -3.0930  -17.2720 O   0  0  0  0  0  0  0  0  0  0  0  0
   -1.2170   -0.8640  -15.7380 C   0  0  0  0  0  0  0  0  0  0  0  0
   -6.2880   -2.7730  -19.2120 O   0  0  0  0  0  0  0  0  0  0  0  0
   -6.9970   -1.4910  -16.9760 C   0  0  0  0  0  0  0  0  0  0  0  0
   -2.7830   -0.1230  -19.4120 C   0  0  0  0  0  0  0  0  0  0  0  0
   -1.3960   -1.9300  -15.2330 C   0  0  0  0  0  0  0  0  0  0  0  0
   -8.9450   -2.8890  -16.9150 P   0  0  2  0  0  0  0  0  0  0  0  0
   -8.7330   -4.1260  -16.1240 O   0  0  0  0  0  0  0  0  0  0  0  0
   -9.8240   -1.8880  -16.3780 O   0  0  0  0  0  0  0  0  0  0  0  0
   -7.5370   -3.5260  -15.4430 C   0  0  0  0  0  0  0  0  0  0  0  0
   -4.8800   -1.5960  -17.7730 C   0  0  2  0  0  0  0  0  0  0  0  0
   -5.7550   -1.6750  -19.0470 C   0  0  0  0  0  0  0  0  0  0  0  0
   -5.6460   -0.8220  -19.9050 O   0  0  0  0  0  0  0  0  0  0  0  0
  2  7  1  0
  5 20  1  0
  5 10  1  1
  6  4  1  0
  7 11  1  0
  9 14  1  6
  9  2  1  0
  9  5  1  0
 10  6  1  0
 11 15  1  0
 12 21  1  0
 13  8  1  0
 13  3  1  0
 15  4  1  0
 16  1  2  0
 16  3  1  0
 16 18  1  1
 16 17  1  0
 17 19  1  0
 20  8  1  1
 21 20  1  0
 22 21  2  0
M  END
$$$$

     RDKit          3D

 22 23  0  0  0  0  0  0  0  0999 V2000
   -8.8090   -4.0860  -16.5630 O   0  0  0  0  0  0  0  0  0  0  0  0
   -3.4760   -1.9790  -17.7100 C   0  0  0  0  0  0  0  0  0  0  0  0
   -1.5340   -0.1940  -20.1980 O   0  0  0  0  0  0  0  0  0  0  0  0
   -7.9340   -3.4340  -18.7310 O   0  0  0  0  0  0  0  0  0  0  0  0
    0.9050   -1.6990  -17.2740 C   0  0  0  0  0  0  0  0  0  0  0  0
   -0.3080   -1.9020  -16.5110 N   0  0  0  0  0  0  0  0  0  0  0  0
    0.6980   -0.3440  -17.9000 C   0  0  0  0  0  0  0  0  0  0  0  0
   -8.1890   -3.3990  -17.2750 C   0  0  0  0  0  0  0  0  0  0  0  0
   -0.4650   -0.6540  -18.7210 C   0  0  1  0  0  0  0  0  0  0  0  0
   -1.8620   -0.8490  -18.0090 C   0  0  0  0  0  0  0  0  0  0  0  0
   -5.8170   -2.6170  -17.4040 O   0  0  0  0  0  0  0  0  0  0  0  0
   -6.6860   -1.4600  -17.6390 C   0  0  0  0  0  0  0  0  0  0  0  0
   -4.5920   -2.3230  -17.2550 C   0  0  1  0  0  0  0  0  0  0  0  0
  -10.2070   -0.6480  -17.4210 N   0  0  0  0  0  0  0  0  0  0  0  0
   -1.8540   -2.1320  -17.2950 C   0  0  2  0  0  0  0  0  0  0  0  0
   -0.8330    0.2510  -19.5530 C   0  0  0  0  0  0  0  0  0  0  0  0
   -7.8100   -1.9860  -16.8030 C   0  0  1  0  0  0  0  0  0  0  0  0
   -0.3070    1.6010  -19.7340 O   0  0  0  0  0  0  0  0  0  0  0  0
   -2.9270   -3.7240  -15.9000 C   0  0  0  0  0  0  0  0  0  0  0  0
   -9.2690   -1.1810  -17.1350 C   0  0  0  0  0  0  0  0  0  0  0  0
   -2.2160   -2.8060  -16.3700 C   0  0  0  0  0  0  0  0  0  0  0  0
   -4.0550   -3.7800  -16.6950 C   0  0  0  0  0  0  0  0  0  0  0  0
 15  2  1  1
  2 13  1  0
  3 16  2  0
  4  8  2  0
  5  6  1  0
  7  5  1  0
  8 17  1  0
  8  1  1  0
  9 16  1  6
  9 10  1  0
  9  7  1  0
 12 11  1  0
 13 11  1  6
 13 22  1  0
 14 20  3  0
 15 10  1  0
 15  6  1  0
 15 21  1  0
 17 12  1  6
 18 16  1  0
 20 17  1  0
 21 19  1  0
 22 19  1  0
M  END
$$$$

     RDKit          3D

 30 32  0  0  0  0  0  0  0  0999 V2000
   -6.8470   -2.4710  -20.1420 C   0  0  0  0  0  0  0  0  0  0  0  0
   -5.9710   -1.4530  -18.2860 C   0  0  1  0  0  0  0  0  0  0  0  0
   -0.2340   -1.1800  -18.6160 C   0  0  2  0  0  0  0  0  0  0  0  0
   -6.4050   -2.8320  -16.1480 C   0  0  0  0  0  0  0  0  0  0  0  0
   -2.0640   -2.5910  -15.8480 C   0  0  0  0  0  0  0  0  0  0  0  0
   -9.0100   -2.6220  -16.7720 N   0  0  0  0  0  0  0  0  0  0  0  0
  -10.2860   -2.6030  -17.1680 C   0  0  0  0  0  0  0  0  0  0  0  0
   -1.8660    1.8800  -19.0260 O   0  0  0  0  0  0  0  0  0  0  0  0
   -0.6580   -1.9100  -19.9920 C   0  0  0  0  0  0  0  0  0  0  0  0
   -2.6390   -1.0580  -17.8500 C   0  0  0  0  0  0  0  0  0  0  0  0
   -4.6910   -1.6810  -18.2010 C   0  0  1  0  0  0  0  0  0  0  0  0
   -2.9610   -1.9290  -16.8660 C   0  0  0  0  0  0  0  0  0  0  0  0
   -1.4410   -0.3560  -18.1620 C   0  0  1  0  0  0  0  0  0  0  0  0
   -1.4330   -0.0110  -16.9110 O   0  0  0  0  0  0  0  0  0  0  0  0
    0.9470   -0.2790  -18.8540 C   0  0  0  0  0  0  0  0  0  0  0  0
   -1.2100   -1.8940  -15.2570 O   0  0  0  0  0  0  0  0  0  0  0  0
   -8.6050   -0.7290  -17.8790 O   0  0  0  0  0  0  0  0  0  0  0  0
   -6.4150   -1.2440  -19.4800 N   0  0  0  0  0  0  0  0  0  0  0  0
    0.2800    0.9400  -19.5480 C   0  0  0  0  0  0  0  0  0  0  0  0
   -8.2070   -1.7000  -17.2980 C   0  0  0  0  0  0  0  0  0  0  0  0
   -3.7740   -0.9900  -18.8800 C   0  0  0  0  0  0  0  0  0  0  0  0
   -4.2390   -0.2640  -21.3090 O   0  0  0  0  0  0  0  0  0  0  0  0
   -3.8240   -0.5160  -20.0020 C   0  0  0  0  0  0  0  0  0  0  0  0
   -7.3570   -3.5620  -15.4650 C   0  0  0  0  0  0  0  0  0  0  0  0
   -8.5420   -3.6330  -16.1390 C   0  0  0  0  0  0  0  0  0  0  0  0
   -1.0830    0.9840  -18.8700 C   0  0  0  0  0  0  0  0  0  0  0  0
   -9.1820   -4.6290  -16.2260 O   0  0  0  0  0  0  0  0  0  0  0  0
   -4.1130   -2.3260  -17.0440 O   0  0  0  0  0  0  0  0  0  0  0  0
   -6.7490   -2.0290  -17.1430 C   0  0  2  0  0  0  0  0  0  0  0  0
   -2.2920   -3.7100  -15.6620 O   0  0  0  0  0  0  0  0  0  0  0  0
  1 18  1  0
  2 18  1  6
  3  9  1  6
  3 13  1  0
  4 24  1  0
  5 30  2  0
  5 16  1  0
  6 25  1  0
  7  6  1  0
  8 26  2  0
 10 12  2  0
 11  2  1  0
 11 28  1  1
 12  5  1  0
 13 10  1  0
 13 14  1  1
 15  3  1  0
 17 20  2  0
 19 26  1  0
 19 15  1  0
 20 29  1  0
 20  6  1  0
 21 11  1  0
 21 10  1  0
 22 23  2  0
 23 21  2  0
 25 24  1  0
 26 13  1  0
 27 25  2  0
 28 12  1  0
 29  2  1  0
 29  4  1  6
M  END
$$$$

     RDKit          3D

 21 22  0  0  0  0  0  0  0  0999 V2000
   -3.7130   -1.9450  -17.0240 C   0  0  2  0  0  0  0  0  0  0  0  0
   -3.4040   -3.1810  -16.6200 C   0  0  0  0  0  0  0  0  0  0  0  0
   -6.4080   -1.9520  -17.1960 C   0  0  0  0  0  0  0  0  0  0  0  0
   -8.9490   -4.3780  -16.0820 O   0  0  0  0  0  0  0  0  0  0  0  0
    0.2050   -2.2150  -19.8500 C   0  0  0  0  0  0  0  0  0  0  0  0
   -8.5220   -1.3030  -17.9330 C   0  0  0  0  0  0  0  0  0  0  0  0
   -5.1020   -1.5040  -17.0510 C   0  0  0  0  0  0  0  0  0  0  0  0
   -9.1470   -2.2330  -17.1780 C   0  0  0  0  0  0  0  0  0  0  0  0
   -8.3480   -3.2420  -16.5280 C   0  0  0  0  0  0  0  0  0  0  0  0
   -6.2390   -3.7900  -15.4750 O   0  0  0  0  0  0  0  0  0  0  0  0
   -1.6080   -3.2310  -18.1280 C   0  0  0  0  0  0  0  0  0  0  0  0
  -10.4500   -2.1860  -17.0170 O   0  0  0  0  0  0  0  0  0  0  0  0
   -2.4300   -3.7640  -17.1980 C   0  0  0  0  0  0  0  0  0  0  0  0
   -7.1910   -1.2610  -18.1100 C   0  0  0  0  0  0  0  0  0  0  0  0
   -0.9780   -1.4170  -19.4610 C   0  0  0  0  0  0  0  0  0  0  0  0
   -9.2140   -0.3790  -18.4420 F   0  0  0  0  0  0  0  0  0  0  0  0
   -6.6900   -0.4810  -19.1460 F   0  0  0  0  0  0  0  0  0  0  0  0
   -6.9550   -2.9820  -16.4400 C   0  0  0  0  0  0  0  0  0  0  0  0
   -1.4170   -0.4640  -20.1500 O   0  0  0  0  0  0  0  0  0  0  0  0
   -1.8090   -1.9470  -18.3480 C   0  0  0  0  0  0  0  0  0  0  0  0
   -2.7560   -1.1740  -17.5610 C   0  0  0  0  0  0  0  0  0  0  0  0
  1  7  1  6
  1  2  1  0
  3  7  1  0
  3 18  1  0
  5 15  1  0
  6  8  2  0
  8 12  1  0
  8  9  1  0
  9 18  2  0
  9  4  1  0
 11 13  1  0
 13  2  2  0
 14  6  1  0
 14  3  2  0
 16  6  1  0
 17 14  1  0
 18 10  1  0
 19 15  2  0
 20 15  1  0
 20 11  1  0
 20 21  1  0
 21  1  1  0
M  END
$$$$

     RDKit          3D

 19 20  0  0  0  0  0  0  0  0999 V2000
   -0.6820   -2.7500  -20.4340 N   0  0  0  0  0  0  0  0  0  0  0  0
   -0.7990   -0.8100  -18.9790 C   0  0  0  0  0  0  0  0  0  0  0  0
   -9.4810   -1.4070  -17.0620 C   0  0  0  0  0  0  0  0  0  0  0  0
   -3.1240   -1.6780  -18.5870 N   0  0  0  0  0  0  0  0  0  0  0  0
   -8.1150   -2.0980  -18.5760 N   0  0  0  0  0  0  0  0  0  0  0  0
   -8.2230   -2.1370  -17.0650 C   0  0  2  0  0  0  0  0  0  0  0  0
   -5.9880   -2.2360  -17.8900 N   0  0  0  0  0  0  0  0  0  0  0  0
   -8.7910   -3.4890  -16.8110 C   0  0  0  0  0  0  0  0  0  0  0  0
   -5.0500   -2.9530  -17.5930 C   0  0  0  0  0  0  0  0  0  0  0  0
   -2.9340   -2.2990  -16.3920 C   0  0  0  0  0  0  0  0  0  0  0  0
   -3.0660   -3.1960  -15.1730 C   0  0  0  0  0  0  0  0  0  0  0  0
   -0.0810    0.0710  -18.4430 O   0  0  0  0  0  0  0  0  0  0  0  0
   -1.7600   -1.1880  -16.5540 S   0  0  0  0  0  0  0  0  0  0  0  0
    0.3720   -0.8090  -21.0940 C   0  0  0  0  0  0  0  0  0  0  0  0
   -3.7860   -2.2790  -17.4990 C   0  0  1  0  0  0  0  0  0  0  0  0
   -6.6240   -2.2480  -19.0480 C   0  0  0  0  0  0  0  0  0  0  0  0
   -6.8230   -1.5950  -17.2030 C   0  0  0  0  0  0  0  0  0  0  0  0
   -0.4510   -1.4420  -20.2170 C   0  0  0  0  0  0  0  0  0  0  0  0
   -1.9430   -1.2340  -18.1690 C   0  0  0  0  0  0  0  0  0  0  0  0
  1 18  1  0
  2 12  2  0
  4 19  1  0
  4 15  1  0
  5  6  1  0
  6  3  1  6
  6  8  1  0
  7  9  1  0
  7 17  1  0
 10 11  1  0
 13 10  1  0
 14 18  2  0
 15  9  1  6
 15 10  1  0
 16  5  1  0
 16  7  1  0
 17  6  1  0
 18  2  1  0
 19  2  1  0
 19 13  1  0
M  END
$$$$

     RDKit          3D

 20 21  0  0  0  0  0  0  0  0999 V2000
   -4.0130   -1.2180  -17.3320 O   0  0  0  0  0  0  0  0  0  0  0  0
   -0.4000   -1.4340  -18.8810 C   0  0  0  0  0  0  0  0  0  0  0  0
   -2.5320   -0.5430  -19.1980 O   0  0  0  0  0  0  0  0  0  0  0  0
   -8.5800   -2.3830  -16.9540 C   0  0  0  0  0  0  0  0  0  0  0  0
   -4.0670   -0.5720  -21.0080 O   0  0  0  0  0  0  0  0  0  0  0  0
   -6.7660   -1.6320  -17.5250 C   0  0  2  0  0  0  0  0  0  0  0  0
   -1.7690   -1.1080  -18.2980 C   0  0  1  0  0  0  0  0  0  0  0  0
   -3.7440   -0.7420  -19.7220 C   0  0  0  0  0  0  0  0  0  0  0  0
   -7.4800   -4.1040  -14.9490 O   0  0  0  0  0  0  0  0  0  0  0  0
   -5.4500   -3.4600  -15.4850 O   0  0  0  0  0  0  0  0  0  0  0  0
   -6.7540   -3.4280  -15.5970 C   0  0  0  0  0  0  0  0  0  0  0  0
   -6.4900   -1.1070  -19.8330 O   0  0  0  0  0  0  0  0  0  0  0  0
   -7.2430   -2.5900  -16.7860 C   0  0  1  0  0  0  0  0  0  0  0  0
   -1.2230   -1.1780  -15.3020 O   0  0  0  0  0  0  0  0  0  0  0  0
   -2.6110   -1.6580  -17.0690 C   0  0  1  0  0  0  0  0  0  0  0  0
   -2.1270   -2.0470  -15.9710 C   0  0  0  0  0  0  0  0  0  0  0  0
   -8.1580   -1.3220  -17.7980 C   0  0  0  0  0  0  0  0  0  0  0  0
   -4.5250   -1.1750  -18.7040 C   0  0  0  0  0  0  0  0  0  0  0  0
   -0.5310   -2.8350  -19.3510 C   0  0  0  0  0  0  0  0  0  0  0  0
   -5.8660   -1.4190  -18.6670 C   0  0  0  0  0  0  0  0  0  0  0  0
  1 15  1  0
  3  7  1  0
  4 13  1  0
  5  8  2  0
  6 20  1  0
  6 13  1  0
  7  2  1  6
  7 15  1  0
  8  3  1  0
  8 18  1  0
 11 10  2  0
 11  9  1  0
 12 20  1  0
 13 11  1  1
 15 16  1  1
 16 14  1  0
  6 17  1  6
 17  4  1  0
 18 20  2  3
 18  1  1  0
 19  2  1  0
M  END
$$$$

     RDKit          3D

 23 24  0  0  0  0  0  0  0  0999 V2000
   -8.5380   -3.3090  -17.2370 C   0  0  0  0  0  0  0  0  0  0  0  0
   -3.1600   -0.4810  -19.6930 C   0  0  0  0  0  0  0  0  0  0  0  0
   -0.1180    0.8540  -20.2190 O   0  0  0  0  0  0  0  0  0  0  0  0
   -0.5510   -0.2040  -17.4440 C   0  0  0  0  0  0  0  0  0  0  0  0
   -2.1680   -3.2310  -16.0050 C   0  0  0  0  0  0  0  0  0  0  0  0
    0.2270   -0.5380  -19.8890 C   0  0  2  0  0  0  0  0  0  0  0  0
   -8.6840   -3.7810  -18.4930 O   0  0  0  0  0  0  0  0  0  0  0  0
   -7.8050   -1.5230  -18.4970 N   0  0  0  0  0  0  0  0  0  0  0  0
   -4.4750   -1.8130  -17.3070 C   0  0  0  0  0  0  0  0  0  0  0  0
   -3.0990   -0.1150  -20.8110 C   0  0  0  0  0  0  0  0  0  0  0  0
   -6.7960   -2.2680  -16.2570 C   0  0  0  0  0  0  0  0  0  0  0  0
   -0.8810   -1.2180  -16.4200 C   0  0  0  0  0  0  0  0  0  0  0  0
   -4.6640   -3.4200  -15.7950 C   0  0  0  0  0  0  0  0  0  0  0  0
   -3.1310   -1.6370  -17.4480 C   0  0  0  0  0  0  0  0  0  0  0  0
   -7.8610   -1.8850  -17.1720 C   0  0  2  0  0  0  0  0  0  0  0  0
   -0.7950   -1.0090  -18.8580 C   0  0  2  0  0  0  0  0  0  0  0  0
   -4.5100   -0.5030  -19.2910 O   0  0  0  0  0  0  0  0  0  0  0  0
   -2.0590   -2.0130  -16.6220 C   0  0  0  0  0  0  0  0  0  0  0  0
    1.5130   -0.4970  -19.2250 O   0  0  0  0  0  0  0  0  0  0  0  0
   -3.3690   -3.7100  -15.5860 C   0  0  0  0  0  0  0  0  0  0  0  0
   -2.2250   -1.0350  -18.7210 N   0  0  0  0  0  0  0  0  0  0  0  0
   -8.8900   -3.9710  -16.3130 O   0  0  0  0  0  0  0  0  0  0  0  0
   -5.2850   -2.4900  -16.5160 C   0  0  0  0  0  0  0  0  0  0  0  0
  1 15  1  0
  1 22  1  0
  2 17  2  0
  2 21  1  0
  6  3  1  1
  4 12  1  0
  5 20  1  0
  6 19  1  0
  7  1  2  0
  9 23  1  0
 10  2  1  0
 13 20  1  0
 14  9  2  0
 14 18  1  0
 15  8  1  6
 15 11  1  0
 16  6  1  0
 16 21  1  0
 16  4  1  1
 18 12  1  0
 18  5  2  0
 21 14  1  0
 23 11  1  0
 23 13  2  0
M  END
$$$$

     RDKit          3D

 20 22  0  0  0  0  0  0  0  0999 V2000
   -5.1700   -2.1460  -16.7010 C   0  0  0  0  0  0  0  0  0  0  0  0
   -9.2000   -2.5190  -17.4030 N   0  0  0  0  0  0  0  0  0  0  0  0
   -7.2310   -1.2780  -17.9200 C   0  0  0  0  0  0  0  0  0  0  0  0
   -9.1350   -4.3830  -16.0900 O   0  0  0  0  0  0  0  0  0  0  0  0
   -5.0980   -2.9680  -15.5850 C   0  0  0  0  0  0  0  0  0  0  0  0
   -0.7560   -1.6080  -16.8210 N   0  0  0  0  0  0  0  0  0  0  0  0
   -2.9830   -1.1290  -19.5150 C   0  0  0  0  0  0  0  0  0  0  0  0
   -8.5910   -3.3120  -16.5930 C   0  0  0  0  0  0  0  0  0  0  0  0
   -2.8500   -1.6390  -16.7650 C   0  0  0  0  0  0  0  0  0  0  0  0
   -1.7210   -1.3890  -18.8490 C   0  0  0  0  0  0  0  0  0  0  0  0
   -0.5110   -1.9180  -19.4030 F   0  0  0  0  0  0  0  0  0  0  0  0
   -4.1500   -1.2010  -18.6920 C   0  0  0  0  0  0  0  0  0  0  0  0
   -6.2840   -3.4580  -15.3250 N   0  0  0  0  0  0  0  0  0  0  0  0
   -4.0440   -1.6300  -17.4230 C   0  0  0  0  0  0  0  0  0  0  0  0
   -0.3590   -2.7890  -16.6640 O   0  0  0  0  0  0  0  0  0  0  0  0
   -6.5290   -2.1120  -17.0560 C   0  0  0  0  0  0  0  0  0  0  0  0
   -8.6060   -1.4630  -18.0190 C   0  0  0  0  0  0  0  0  0  0  0  0
   -7.1610   -3.0290  -16.3100 C   0  0  0  0  0  0  0  0  0  0  0  0
   -0.4520   -0.8050  -15.8370 O   0  0  0  0  0  0  0  0  0  0  0  0
   -1.7700   -1.4480  -17.4600 C   0  0  0  0  0  0  0  0  0  0  0  0
  1  5  1  0
  2  8  1  0
  3 16  1  0
  5 13  1  0
  6 15  1  0
  6 19  2  0
  7 10  2  0
  7 12  1  0
  8 18  1  0
  8  4  2  0
 10 20  1  0
 11 10  1  0
 12 14  2  0
 14  9  1  0
 14  1  1  0
 16  1  2  0
 16 18  1  0
 17  3  1  0
 17  2  2  0
 18 13  2  0
 20  6  1  0
 20  9  2  0
M  CHG  2   6   1  15  -1
M  END
$$$$

     RDKit          3D

 15 16  0  0  0  0  0  0  0  0999 V2000
   -1.6460    0.0380  -17.5890 C   0  0  0  0  0  0  0  0  0  0  0  0
   -5.8650   -2.6680  -16.4890 C   0  0  0  0  0  0  0  0  0  0  0  0
   -2.6830   -0.4900  -19.8820 O   0  0  0  0  0  0  0  0  0  0  0  0
   -8.2740   -3.0040  -16.4660 O   0  0  0  0  0  0  0  0  0  0  0  0
   -7.0840   -3.1950  -15.7910 C   0  0  0  0  0  0  0  0  0  0  0  0
   -4.8920   -1.5360  -18.4280 C   0  0  0  0  0  0  0  0  0  0  0  0
   -7.2300   -2.1390  -18.3990 O   0  0  0  0  0  0  0  0  0  0  0  0
   -5.9630   -2.0920  -17.8210 C   0  0  0  0  0  0  0  0  0  0  0  0
   -8.4570   -2.3770  -17.6790 C   0  0  0  0  0  0  0  0  0  0  0  0
   -3.6200   -1.5160  -17.8790 C   0  0  0  0  0  0  0  0  0  0  0  0
   -4.5200   -2.6560  -15.9170 C   0  0  0  0  0  0  0  0  0  0  0  0
   -7.1100   -3.8130  -14.6910 O   0  0  0  0  0  0  0  0  0  0  0  0
   -2.3010   -0.9590  -18.5270 C   0  0  2  0  0  0  0  0  0  0  0  0
   -3.5270   -2.1110  -16.5790 C   0  0  0  0  0  0  0  0  0  0  0  0
   -1.3150   -1.9930  -18.5140 O   0  0  0  0  0  0  0  0  0  0  0  0
  2 11  2  0
  2  5  1  0
  3 13  1  0
  4  5  1  0
  5 12  2  0
  6 10  1  0
  6  8  2  0
  7  8  1  0
  7  9  1  0
  8  2  1  0
  9  4  1  0
 10 14  2  0
 13 15  1  0
 13 10  1  0
 13  1  1  1
 14 11  1  0
M  END
$$$$

     RDKit          3D

 22 24  0  0  0  0  0  0  0  0999 V2000
   -2.0820   -3.2310  -15.1280 O   0  0  0  0  0  0  0  0  0  0  0  0
   -6.9540   -2.9300  -15.6630 C   0  0  0  0  0  0  0  0  0  0  0  0
   -1.0120   -1.5620  -19.6120 C   0  0  0  0  0  0  0  0  0  0  0  0
   -7.1920   -0.8270  -19.8560 O   0  0  0  0  0  0  0  0  0  0  0  0
   -3.0460   -1.3790  -18.1460 C   0  0  0  0  0  0  0  0  0  0  0  0
   -6.3160   -2.9010  -19.4490 O   0  0  0  0  0  0  0  0  0  0  0  0
   -1.6000   -1.6260  -18.4000 C   0  0  0  0  0  0  0  0  0  0  0  0
   -3.0810   -0.2390  -20.3040 C   0  0  0  0  0  0  0  0  0  0  0  0
   -5.1190   -2.1640  -16.9310 C   0  0  2  0  0  0  0  0  0  0  0  0
   -0.8950   -2.5780  -17.3810 N   0  0  0  0  0  0  0  0  0  0  0  0
   -2.7430   -4.2160  -17.1890 O   0  0  0  0  0  0  0  0  0  0  0  0
   -2.3300   -3.1390  -16.5100 S   0  0  1  0  0  0  0  0  0  0  0  0
   -6.0470   -1.2880  -17.7960 C   0  0  1  0  0  0  0  0  0  0  0  0
   -8.1480   -2.4430  -16.5030 C   0  0  1  0  0  0  0  0  0  0  0  0
   -9.4040   -1.5450  -16.6700 C   0  0  0  0  0  0  0  0  0  0  0  0
   -6.5350   -1.5790  -19.1070 C   0  0  0  0  0  0  0  0  0  0  0  0
   -1.8250   -0.5600  -20.4850 C   0  0  0  0  0  0  0  0  0  0  0  0
   -7.3560   -1.2290  -17.1980 C   0  0  0  0  0  0  0  0  0  0  0  0
   -3.8350   -0.7780  -19.2600 C   0  0  0  0  0  0  0  0  0  0  0  0
   -3.6410   -1.9110  -16.8560 C   0  0  1  0  0  0  0  0  0  0  0  0
   -5.8060   -3.2490  -16.4800 N   0  0  0  0  0  0  0  0  0  0  0  0
   -8.7520   -3.8040  -17.0660 C   0  0  0  0  0  0  0  0  0  0  0  0
  3  7  1  0
  4 16  2  0
  6 16  1  0
  7  5  2  0
  7 10  1  0
  8 19  1  0
  9 20  1  0
  9 21  1  6
 12 10  1  6
 11 12  2  0
 12  1  2  0
 13 16  1  6
 13 18  1  0
 13  9  1  0
 14  2  1  0
 14 15  1  1
 17  8  2  0
 17  3  1  0
 18 14  1  0
 19  5  1  0
 20  5  1  6
 20 12  1  0
 21  2  1  0
 22 14  1  0
M  END
$$$$

     RDKit          3D

 19 21  0  0  0  0  0  0  0  0999 V2000
   -6.7750   -2.3470  -16.5090 N   0  0  0  0  0  0  0  0  0  0  0  0
   -0.7610   -1.6640  -17.3780 O   0  0  0  0  0  0  0  0  0  0  0  0
   -7.3970   -3.4290  -15.7930 C   0  0  0  0  0  0  0  0  0  0  0  0
   -3.4330   -1.2370  -18.8580 C   0  0  0  0  0  0  0  0  0  0  0  0
   -6.8770   -4.3370  -15.0970 O   0  0  0  0  0  0  0  0  0  0  0  0
   -5.7500   -1.3310  -18.3550 N   0  0  0  0  0  0  0  0  0  0  0  0
   -1.7950   -2.3740  -17.4190 C   0  0  0  0  0  0  0  0  0  0  0  0
   -7.7590   -1.4000  -16.9820 C   0  0  1  0  0  0  0  0  0  0  0  0
   -5.5200   -2.0290  -17.1690 C   0  0  0  0  0  0  0  0  0  0  0  0
   -3.1310   -1.9750  -17.6980 C   0  0  0  0  0  0  0  0  0  0  0  0
   -4.2370   -2.4040  -16.8210 C   0  0  0  0  0  0  0  0  0  0  0  0
   -2.3220   -0.7030  -19.8100 C   0  0  0  0  0  0  0  0  0  0  0  0
   -5.1450   -0.5340  -20.3530 O   0  0  0  0  0  0  0  0  0  0  0  0
   -7.1650   -1.0300  -18.3450 C   0  0  0  0  0  0  0  0  0  0  0  0
   -8.9680   -2.3830  -17.0860 C   0  0  1  0  0  0  0  0  0  0  0  0
   -1.5220   -3.7070  -17.5570 O   0  0  0  0  0  0  0  0  0  0  0  0
   -8.8010   -3.3180  -18.1640 O   0  0  0  0  0  0  0  0  0  0  0  0
   -4.7370   -0.9930  -19.2150 C   0  0  0  0  0  0  0  0  0  0  0  0
   -8.6720   -3.3250  -15.8040 N   0  0  0  0  0  0  0  0  0  0  0  0
  1  3  1  0
  3  5  2  0
  4 10  2  0
  6 14  1  0
  6  9  1  0
  7  2  1  0
  8 14  1  6
  8  1  1  0
  9 11  2  0
  9  1  1  0
 10  7  1  0
 10 11  1  0
 12  4  1  0
 13 18  2  0
 15 17  1  6
 15  8  1  0
 15 19  1  0
 16  7  2  0
 18  4  1  0
 18  6  1  0
 19  3  1  0
M  END
$$$$

     RDKit          3D

 20 21  0  0  0  0  0  0  0  0999 V2000
   -1.9470   -1.0680  -18.0300 N   0  0  0  0  0  0  0  0  0  0  0  0
   -3.6750   -3.5900  -16.9940 C   0  0  0  0  0  0  0  0  0  0  0  0
   -7.1350   -2.9220  -19.3870 O   0  0  0  0  0  0  0  0  0  0  0  0
   -7.1560   -1.8640  -18.1830 C   0  0  1  0  0  0  0  0  0  0  0  0
   -4.0630   -0.7490  -19.8700 C   0  0  0  0  0  0  0  0  0  0  0  0
   -4.9870   -0.1870  -20.6370 O   0  0  0  0  0  0  0  0  0  0  0  0
   -7.9150   -2.4180  -17.1790 C   0  0  1  0  0  0  0  0  0  0  0  0
   -2.3630   -3.5870  -16.6310 C   0  0  0  0  0  0  0  0  0  0  0  0
   -0.4780   -0.4250  -19.3330 C   0  0  0  0  0  0  0  0  0  0  0  0
   -9.2750   -2.1070  -16.6740 C   0  0  0  0  0  0  0  0  0  0  0  0
   -8.9520   -3.4260  -17.1330 C   0  0  0  0  0  0  0  0  0  0  0  0
   -2.5310   -0.3300  -18.3410 O   0  0  0  0  0  0  0  0  0  0  0  0
   -2.6270   -1.6890  -15.6970 C   0  0  0  0  0  0  0  0  0  0  0  0
   -1.7490   -2.7730  -15.7180 C   0  0  0  0  0  0  0  0  0  0  0  0
   -3.9920   -2.1120  -17.5520 C   0  0  1  0  0  0  0  0  0  0  0  0
   -6.0870   -1.1800  -18.5130 C   0  0  0  0  0  0  0  0  0  0  0  0
   -2.7470   -1.1940  -16.7000 C   0  0  2  0  0  0  0  0  0  0  0  0
   -4.4320   -1.0570  -18.3920 C   0  0  2  0  0  0  0  0  0  0  0  0
   -0.1040   -1.9630  -17.8350 O   0  0  0  0  0  0  0  0  0  0  0  0
   -0.8550   -1.2970  -18.1740 C   0  0  0  0  0  0  0  0  0  0  0  0
  2  8  1  0
  4  3  1  6
  4  7  1  0
  6  5  1  0
  7 11  1  6
  7 10  1  0
  8 14  1  0
  9 20  1  0
 11 10  1  0
 12  1  1  0
 14 13  1  0
 15 18  1  0
 15  2  1  6
 15 17  1  0
 18 16  1  6
 16  4  1  0
 17  1  1  6
 17 13  1  0
 18  5  1  0
 20  1  1  0
 20 19  2  0
M  END
$$$$

     RDKit          3D

 20 20  0  0  0  0  0  0  0  0999 V2000
   -8.5280   -4.0860  -15.9760 O   0  0  0  0  0  0  0  0  0  0  0  0
    0.5240   -1.1970  -18.3840 C   0  0  0  0  0  0  0  0  0  0  0  0
   -9.6360   -0.1910  -17.4390 O   0  0  0  0  0  0  0  0  0  0  0  0
   -6.5590   -2.8800  -19.3680 O   0  0  0  0  0  0  0  0  0  0  0  0
   -4.4010   -1.2900  -17.9560 C   0  0  2  0  0  0  0  0  0  0  0  0
   -5.7480   -1.4500  -17.7130 O   0  0  0  0  0  0  0  0  0  0  0  0
   -0.1010   -2.3850  -18.9020 C   0  0  2  0  0  0  0  0  0  0  0  0
   -8.8680   -2.4830  -17.5420 C   0  0  1  0  0  0  0  0  0  0  0  0
   -3.6400   -0.7030  -19.0640 C   0  0  0  0  0  0  0  0  0  0  0  0
    1.1730   -3.2720  -19.0600 C   0  0  0  0  0  0  0  0  0  0  0  0
   -7.5330   -2.1550  -17.4190 N   0  0  0  0  0  0  0  0  0  0  0  0
   -3.5560   -2.6140  -17.5250 C   0  0  1  0  0  0  0  0  0  0  0  0
   -9.3400   -3.8610  -17.1270 C   0  0  0  0  0  0  0  0  0  0  0  0
   -2.0810   -1.9780  -17.5270 C   0  0  2  0  0  0  0  0  0  0  0  0
   -9.8850   -1.4930  -16.9830 C   0  0  0  0  0  0  0  0  0  0  0  0
   -6.5900   -2.1250  -18.3480 C   0  0  0  0  0  0  0  0  0  0  0  0
   -0.7920   -2.4730  -20.2090 C   0  0  0  0  0  0  0  0  0  0  0  0
   -2.1920   -0.6950  -18.4280 C   0  0  0  0  0  0  0  0  0  0  0  0
   -4.3510   -3.0270  -16.2010 C   0  0  0  0  0  0  0  0  0  0  0  0
   -1.0210   -3.0580  -17.8940 C   0  0  0  0  0  0  0  0  0  0  0  0
  3 15  1  0
  4 16  2  0
  5  6  1  6
  5 12  1  0
  7  2  1  1
  7 20  1  0
  8 11  1  0
  8 13  1  1
  8 15  1  0
  9 18  1  0
  9  5  1  0
 10  7  1  0
 12 19  1  1
 13  1  1  0
 14 20  1  6
 14 12  1  0
 16  6  1  0
 16 11  1  0
 17  7  1  0
 18 14  1  0
M  END
$$$$

     RDKit          3D

 21 23  0  0  0  0  0  0  0  0999 V2000
  -10.5910   -1.5400  -17.5190 O   0  0  0  0  0  0  0  0  0  0  0  0
   -3.3670   -1.8440  -17.5040 C   0  0  0  0  0  0  0  0  0  0  0  0
   -6.9830   -1.9770  -16.5980 C   0  0  0  0  0  0  0  0  0  0  0  0
   -2.5710   -0.7700  -19.5500 C   0  0  0  0  0  0  0  0  0  0  0  0
   -5.8100   -2.1580  -17.1880 C   0  0  2  0  0  0  0  0  0  0  0  0
   -1.7300   -2.7050  -15.9140 C   0  0  0  0  0  0  0  0  0  0  0  0
   -4.3920   -2.3430  -16.7950 C   0  0  0  0  0  0  0  0  0  0  0  0
   -0.9780   -1.9420  -18.1410 C   0  0  0  0  0  0  0  0  0  0  0  0
   -5.8480   -2.0340  -18.7110 C   0  0  0  0  0  0  0  0  0  0  0  0
   -8.8980   -0.1880  -17.7150 O   0  0  0  0  0  0  0  0  0  0  0  0
   -0.4160   -2.8520  -15.4340 O   0  0  0  0  0  0  0  0  0  0  0  0
   -4.1850   -3.0350  -15.5750 C   0  0  0  0  0  0  0  0  0  0  0  0
   -1.2480   -1.1980  -19.3100 C   0  0  0  0  0  0  0  0  0  0  0  0
   -2.0480   -2.0830  -17.1560 C   0  0  0  0  0  0  0  0  0  0  0  0
   -5.0390   -1.1190  -19.1870 O   0  0  0  0  0  0  0  0  0  0  0  0
   -9.4090   -1.3400  -17.3020 C   0  0  0  0  0  0  0  0  0  0  0  0
   -3.6240   -1.2590  -18.7650 C   0  0  0  0  0  0  0  0  0  0  0  0
   -8.5450   -3.6360  -16.9300 O   0  0  0  0  0  0  0  0  0  0  0  0
   -2.7910   -3.2380  -15.1680 C   0  0  0  0  0  0  0  0  0  0  0  0
   -8.3810   -2.3930  -17.0110 C   0  0  0  0  0  0  0  0  0  0  0  0
   -6.4500   -2.8720  -19.4230 O   0  0  0  0  0  0  0  0  0  0  0  0
  1 16  1  0
  2 14  1  0
  2  7  1  0
  4 13  2  0
  4 17  1  0
  5  7  1  0
  5  3  1  1
  6 11  1  0
  6 19  2  0
  7 12  2  0
  8 14  2  0
  9  5  1  0
 10 16  2  0
 12 19  1  0
 13  8  1  0
 14  6  1  0
 15 17  1  0
 15  9  1  0
 16 20  1  0
 17  2  2  0
 20 18  2  0
 20  3  1  0
 21  9  2  0
M  END
$$$$

     RDKit          3D

 20 22  0  0  0  0  0  0  0  0999 V2000
   -0.8680   -3.0710  -16.2820 O   0  0  0  0  0  0  0  0  0  0  0  0
   -7.7930   -3.3840  -15.8440 C   0  0  0  0  0  0  0  0  0  0  0  0
   -2.5100   -1.7140  -17.1970 C   0  0  0  0  0  0  0  0  0  0  0  0
   -6.7610   -1.7940  -17.5480 C   0  0  1  0  0  0  0  0  0  0  0  0
   -6.6620   -3.0660  -19.3750 N   0  0  0  0  0  0  0  0  0  0  0  0
   -6.9240   -0.8360  -19.7680 O   0  0  0  0  0  0  0  0  0  0  0  0
   -3.7840   -1.8000  -17.0340 C   0  0  0  0  0  0  0  0  0  0  0  0
   -4.1600   -2.6030  -16.0640 C   0  0  0  0  0  0  0  0  0  0  0  0
   -9.1640   -2.6000  -17.4710 C   0  0  0  0  0  0  0  0  0  0  0  0
   -2.0870   -2.6020  -16.3060 C   0  0  0  0  0  0  0  0  0  0  0  0
   -6.7370   -1.9100  -19.0660 C   0  0  0  0  0  0  0  0  0  0  0  0
   -1.7640   -1.1300  -17.9370 O   0  0  0  0  0  0  0  0  0  0  0  0
   -3.0940   -3.0640  -15.5130 N   0  0  0  0  0  0  0  0  0  0  0  0
   -8.2990   -1.3910  -17.3870 C   0  0  0  0  0  0  0  0  0  0  0  0
   -2.2710    0.2940  -17.6620 C   0  0  0  0  0  0  0  0  0  0  0  0
   -6.6220   -2.7310  -16.3730 C   0  0  0  0  0  0  0  0  0  0  0  0
   -4.8870   -1.3120  -17.6680 C   0  0  0  0  0  0  0  0  0  0  0  0
   -7.6260   -4.2100  -14.8780 O   0  0  0  0  0  0  0  0  0  0  0  0
   -5.4640   -2.9380  -15.7210 C   0  0  0  0  0  0  0  0  0  0  0  0
   -8.9990   -3.3140  -16.2610 O   0  0  0  0  0  0  0  0  0  0  0  0
  2 18  2  0
  3  7  2  0
  3 10  1  0
  4 11  1  6
  4 14  1  0
  4 16  1  0
  5 11  1  0
  6 11  2  0
  7  8  1  0
  8 19  1  0
  8 13  2  0
  9 14  1  0
  9 20  1  0
 10  1  2  0
 10 13  1  0
 12 15  1  0
 12  3  1  0
 16  2  1  0
 16 19  2  0
 17  4  1  0
 17  7  1  0
 20  2  1  0
M  END
$$$$

     RDKit          3D

 22 23  0  0  0  0  0  0  0  0999 V2000
   -1.6590   -1.3490  -17.0280 C   0  0  1  0  0  0  0  0  0  0  0  0
   -8.1010   -1.4610  -18.4540 N   0  0  0  0  0  0  0  0  0  0  0  0
   -4.9040   -2.1220  -17.3030 C   0  0  0  0  0  0  0  0  0  0  0  0
   -6.2660   -2.1360  -17.4670 C   0  0  0  0  0  0  0  0  0  0  0  0
   -8.4130   -1.8530  -17.2060 N   0  0  0  0  0  0  0  0  0  0  0  0
   -1.7140   -1.2010  -19.9660 F   0  0  0  0  0  0  0  0  0  0  0  0
   -1.2620   -0.0670  -16.2460 C   0  0  0  0  0  0  0  0  0  0  0  0
   -0.3630    0.7990  -16.7620 O   0  0  0  0  0  0  0  0  0  0  0  0
   -7.3180   -3.5810  -15.6950 C   0  0  0  0  0  0  0  0  0  0  0  0
   -7.3660   -2.5790  -16.6590 C   0  0  1  0  0  0  0  0  0  0  0  0
   -6.0960   -1.2400  -19.7410 N   0  0  0  0  0  0  0  0  0  0  0  0
   -6.8240   -1.6190  -18.6360 C   0  0  0  0  0  0  0  0  0  0  0  0
    0.1140    1.3290  -17.9840 C   0  0  0  0  0  0  0  0  0  0  0  0
   -0.2110    0.4700  -19.3260 C   0  0  0  0  0  0  0  0  0  0  0  0
   -2.5080    0.7800  -19.6770 F   0  0  0  0  0  0  0  0  0  0  0  0
   -8.2930   -4.2980  -15.4530 O   0  0  0  0  0  0  0  0  0  0  0  0
   -1.4790   -0.2480  -19.2510 C   0  0  1  0  0  0  0  0  0  0  0  0
   -9.7460   -1.5850  -16.6480 C   0  0  0  0  0  0  0  0  0  0  0  0
   -3.1130   -1.2030  -17.4870 C   0  0  0  0  0  0  0  0  0  0  0  0
   -6.1390   -3.8650  -15.2760 O   0  0  0  0  0  0  0  0  0  0  0  0
   -0.9300   -1.4160  -18.2830 O   0  0  0  0  0  0  0  0  0  0  0  0
   -3.9430   -2.4850  -17.4270 C   0  0  0  0  0  0  0  0  0  0  0  0
  1 19  1  6
  1  7  1  0
  2  5  1  0
  4  3  1  0
  4 10  1  0
  5 10  1  0
  5 18  1  0
 17  6  1  6
  8  7  1  0
  9 16  2  0
  9 20  1  0
 10  9  1  6
 11 12  1  0
 12  2  1  0
 12  4  2  0
 13  8  1  0
 14 17  1  0
 14 13  1  0
 15 17  1  0
 17 21  1  0
 19 22  1  0
 21  1  1  0
 22  3  1  0
M  END
$$$$

     RDKit          3D

 22 25  0  0  0  0  0  0  0  0999 V2000
    1.7530    1.0330  -16.4950 C   0  0  0  0  0  0  0  0  0  0  0  0
   -3.3370   -4.0030  -16.9330 C   0  0  2  0  0  0  0  0  0  0  0  0
   -9.2990   -2.9940  -17.3840 C   0  0  0  0  0  0  0  0  0  0  0  0
   -7.8140   -1.9210  -18.0030 C   0  0  0  0  0  0  0  0  0  0  0  0
   -6.9000   -1.8820  -17.2940 N   0  0  0  0  0  0  0  0  0  0  0  0
   -4.7480   -2.0660  -17.2800 C   0  0  1  0  0  0  0  0  0  0  0  0
   -7.2710   -2.2610  -16.1790 C   0  0  1  0  0  0  0  0  0  0  0  0
   -0.1900   -0.5780  -16.1210 C   0  0  0  0  0  0  0  0  0  0  0  0
   -8.4830   -0.7740  -17.7890 O   0  0  0  0  0  0  0  0  0  0  0  0
   -6.1640   -1.9320  -18.0030 C   0  0  0  0  0  0  0  0  0  0  0  0
   -8.4110   -3.4580  -16.3100 C   0  0  0  0  0  0  0  0  0  0  0  0
   -2.3490   -1.0310  -17.0980 C   0  0  0  0  0  0  0  0  0  0  0  0
   -0.4780   -1.7330  -15.6080 C   0  0  0  0  0  0  0  0  0  0  0  0
   -5.2110   -2.4430  -16.1640 C   0  0  2  0  0  0  0  0  0  0  0  0
   -8.5700   -4.4660  -15.7930 O   0  0  0  0  0  0  0  0  0  0  0  0
    0.3860    0.7890  -16.6800 O   0  0  0  0  0  0  0  0  0  0  0  0
   -4.1030   -3.3910  -16.0930 C   0  0  0  0  0  0  0  0  0  0  0  0
   -1.4060   -2.7710  -16.0330 C   0  0  0  0  0  0  0  0  0  0  0  0
   -2.2850   -2.3490  -16.8580 C   0  0  1  0  0  0  0  0  0  0  0  0
   -3.5860   -2.6370  -17.8550 C   0  0  1  0  0  0  0  0  0  0  0  0
   -0.9510   -0.2780  -16.6710 C   0  0  0  0  0  0  0  0  0  0  0  0
   -5.9970   -2.9870  -15.2530 C   0  0  0  0  0  0  0  0  0  0  0  0
  2 19  1  0
  2 17  1  1
  3 11  1  0
  4  9  1  0
  4  5  1  0
  5  7  1  0
  6 10  1  6
  6 14  1  0
  7 11  1  6
  7 22  1  0
  8 13  1  0
 10  5  1  0
 11 15  2  0
 12 21  1  0
 14 17  1  6
 14 22  1  0
 16  1  1  0
 16  8  1  0
 18 13  1  0
 19 12  1  1
 19 18  1  0
 20  6  1  1
 20  2  1  0
 20 19  1  0
 21  8  2  0
M  END
$$$$

     RDKit          3D

 18 20  0  0  0  0  0  0  0  0999 V2000
   -2.9900   -0.9690  -17.7280 C   0  0  0  0  0  0  0  0  0  0  0  0
   -3.3310   -2.0380  -16.7890 C   0  0  0  0  0  0  0  0  0  0  0  0
   -7.7640   -3.5270  -15.7470 C   0  0  0  0  0  0  0  0  0  0  0  0
   -8.4470   -4.2650  -15.9960 O   0  0  0  0  0  0  0  0  0  0  0  0
   -1.2580   -1.8220  -15.7360 C   0  0  0  0  0  0  0  0  0  0  0  0
   -4.6050   -4.1440  -16.6030 C   0  0  0  0  0  0  0  0  0  0  0  0
   -4.6410   -2.6790  -17.0840 C   0  0  1  0  0  0  0  0  0  0  0  0
   -7.3040   -3.1410  -14.4870 O   0  0  0  0  0  0  0  0  0  0  0  0
   -1.7560   -0.2450  -17.5060 C   0  0  0  0  0  0  0  0  0  0  0  0
   -7.3950   -3.9510  -18.8720 O   0  0  0  0  0  0  0  0  0  0  0  0
   -6.5800   -1.5580  -18.4620 C   0  0  0  0  0  0  0  0  0  0  0  0
   -7.4840   -2.7270  -18.0590 C   0  0  2  0  0  0  0  0  0  0  0  0
   -5.8520   -2.2010  -16.3670 C   0  0  1  0  0  0  0  0  0  0  0  0
    0.2460    0.1000  -16.3750 N   0  0  0  0  0  0  0  0  0  0  0  0
   -5.3520   -1.9810  -18.0530 C   0  0  1  0  0  0  0  0  0  0  0  0
   -2.4030   -2.4730  -15.9540 C   0  0  0  0  0  0  0  0  0  0  0  0
   -0.8840   -0.8800  -16.4260 C   0  0  0  0  0  0  0  0  0  0  0  0
   -7.1880   -2.4190  -17.0280 C   0  0  2  0  0  0  0  0  0  0  0  0
  1  9  2  0
  1  2  1  0
  2 16  2  0
  3  8  1  0
  4  3  2  0
  7  2  1  0
  7  6  1  6
  7 13  1  0
  9 17  1  0
 11 12  1  0
 15 11  1  6
 12 10  1  6
 12 18  1  0
 15  7  1  0
 15 13  1  0
 16  5  1  0
 17 14  1  0
 17  5  2  0
 13 18  1  6
 18  3  1  1
M  END
$$$$

     RDKit          3D

 21 23  0  0  0  0  0  0  0  0999 V2000
   -2.0080   -2.1610  -16.8340 C   0  0  1  0  0  0  0  0  0  0  0  0
   -9.6030    0.1600  -18.0190 N   0  0  0  0  0  0  0  0  0  0  0  0
   -2.1460   -3.0680  -15.5330 C   0  0  0  0  0  0  0  0  0  0  0  0
   -4.2750   -2.3490  -16.4320 C   0  0  0  0  0  0  0  0  0  0  0  0
   -3.3620   -2.0160  -17.4030 C   0  0  0  0  0  0  0  0  0  0  0  0
   -1.2480   -0.9820  -16.6610 C   0  0  0  0  0  0  0  0  0  0  0  0
   -5.5050   -2.0340  -17.1570 N   0  0  0  0  0  0  0  0  0  0  0  0
   -1.4400   -3.0110  -17.9250 C   0  0  0  0  0  0  0  0  0  0  0  0
   -8.9480   -3.0980  -16.6760 C   0  0  0  0  0  0  0  0  0  0  0  0
    0.2460   -2.3240  -19.5080 C   0  0  0  0  0  0  0  0  0  0  0  0
   -1.1630   -2.4320  -19.1770 O   0  0  0  0  0  0  0  0  0  0  0  0
   -7.5470   -2.9030  -16.2940 C   0  0  2  0  0  0  0  0  0  0  0  0
   -3.6340   -2.8820  -15.0840 C   0  0  0  0  0  0  0  0  0  0  0  0
   -7.0290   -3.6370  -15.1130 O   0  0  0  0  0  0  0  0  0  0  0  0
   -3.8930   -1.5180  -18.6200 N   0  0  0  0  0  0  0  0  0  0  0  0
   -6.8700   -1.9700  -17.0110 C   0  0  0  0  0  0  0  0  0  0  0  0
   -8.9310   -0.9490  -17.6490 C   0  0  0  0  0  0  0  0  0  0  0  0
   -9.5120   -2.0250  -17.3180 N   0  0  0  0  0  0  0  0  0  0  0  0
   -9.4040   -4.2830  -16.4640 O   0  0  0  0  0  0  0  0  0  0  0  0
   -5.2040   -1.8300  -18.3620 C   0  0  0  0  0  0  0  0  0  0  0  0
   -7.5490   -0.9530  -17.6520 N   0  0  0  0  0  0  0  0  0  0  0  0
  1  6  1  1
  1  3  1  0
  2 17  1  0
  3 13  1  0
  4 13  1  0
  5  1  1  0
  5  4  2  0
  7 16  1  0
  7  4  1  0
  8  1  1  0
  9 19  2  0
  9 12  1  0
 10 11  1  0
 11  8  1  0
 12 14  1  1
 15 20  1  0
 15  5  1  0
 16 12  1  0
 17 18  2  0
 18  9  1  0
 20  7  1  0
 21 17  1  0
 21 16  2  0
M  END
$$$$

     RDKit          3D

 20 20  0  0  0  0  0  0  0  0999 V2000
   -2.7960   -2.6040  -16.4900 C   0  0  1  0  0  0  0  0  0  0  0  0
   -4.0450   -2.4280  -16.9530 N   0  0  0  0  0  0  0  0  0  0  0  0
   -1.8940   -2.3080  -17.2300 C   0  0  2  0  0  0  0  0  0  0  0  0
   -2.5200   -3.0460  -14.9670 C   0  0  0  0  0  0  0  0  0  0  0  0
   -1.7150   -1.2780  -19.5240 C   0  0  0  0  0  0  0  0  0  0  0  0
   -5.9110   -3.3140  -15.3760 O   0  0  0  0  0  0  0  0  0  0  0  0
   -9.6560   -4.2620  -17.0470 C   0  0  0  0  0  0  0  0  0  0  0  0
   -9.6040   -2.1010  -17.6870 O   0  0  0  0  0  0  0  0  0  0  0  0
   -0.3770   -1.7400  -19.4260 O   0  0  0  0  0  0  0  0  0  0  0  0
   -1.9460   -0.6270  -20.6090 N   0  0  0  0  0  0  0  0  0  0  0  0
   -6.3000   -1.4630  -18.6380 C   0  0  0  0  0  0  0  0  0  0  0  0
   -7.6870   -2.6950  -16.5590 C   0  0  2  0  0  0  0  0  0  0  0  0
   -9.0520   -3.0270  -17.0780 C   0  0  0  0  0  0  0  0  0  0  0  0
   -2.5160   -1.1000  -18.1960 C   0  0  1  0  0  0  0  0  0  0  0  0
   -6.9520   -1.6240  -19.7380 N   0  0  0  0  0  0  0  0  0  0  0  0
   -3.9070   -1.5240  -17.9850 C   0  0  0  0  0  0  0  0  0  0  0  0
   -6.8810   -1.6700  -17.2160 C   0  0  0  0  0  0  0  0  0  0  0  0
   -0.7340   -3.1590  -17.1850 O   0  0  0  0  0  0  0  0  0  0  0  0
   -5.0440   -1.0920  -18.9440 N   0  0  0  0  0  0  0  0  0  0  0  0
   -7.2060   -3.4060  -15.5210 C   0  0  0  0  0  0  0  0  0  0  0  0
  1  4  1  1
  2  1  1  0
  3 18  1  6
  3  1  1  0
  5  9  2  0
  8 13  2  0
 10  5  1  0
 11 17  1  0
 12 17  1  6
 12 20  1  0
 13  7  1  0
 13 12  1  0
 14  5  1  6
 14 16  1  0
 14  3  1  0
 15 11  2  0
 16  2  2  0
 19 11  1  0
 19 16  1  0
 20  6  1  0
M  END
$$$$

     RDKit          3D

 20 21  0  0  0  0  0  0  0  0999 V2000
   -5.6370   -2.1230  -17.8350 C   0  0  0  0  0  0  0  0  0  0  0  0
   -9.1820   -4.2150  -16.1100 O   0  0  0  0  0  0  0  0  0  0  0  0
   -5.7450   -1.0650  -19.7960 O   0  0  0  0  0  0  0  0  0  0  0  0
   -3.4130   -2.2650  -17.5770 C   0  0  0  0  0  0  0  0  0  0  0  0
    1.0190   -0.6360  -16.0600 C   0  0  0  0  0  0  0  0  0  0  0  0
   -1.1690   -1.4530  -17.0690 C   0  0  0  0  0  0  0  0  0  0  0  0
   -1.5760    0.9400  -18.3870 C   0  0  0  0  0  0  0  0  0  0  0  0
   -0.2610   -0.4340  -16.9690 C   0  0  0  0  0  0  0  0  0  0  0  0
   -2.5050   -0.1310  -18.4840 C   0  0  0  0  0  0  0  0  0  0  0  0
   -7.6270   -1.4900  -18.7190 C   0  0  0  0  0  0  0  0  0  0  0  0
   -6.2100   -2.7380  -16.8410 N   0  0  0  0  0  0  0  0  0  0  0  0
   -6.2380   -1.5750  -18.8220 C   0  0  0  0  0  0  0  0  0  0  0  0
   -7.5220   -4.1640  -14.8840 O   0  0  0  0  0  0  0  0  0  0  0  0
   -8.0790   -3.7220  -15.9240 C   0  0  0  0  0  0  0  0  0  0  0  0
   -4.2450   -2.0990  -18.1670 N   0  0  0  0  0  0  0  0  0  0  0  0
   -2.3890   -1.3220  -17.7230 C   0  0  0  0  0  0  0  0  0  0  0  0
   -0.5970    0.8650  -17.4790 C   0  0  0  0  0  0  0  0  0  0  0  0
   -3.3040   -3.0040  -16.5730 O   0  0  0  0  0  0  0  0  0  0  0  0
   -8.2370   -2.2180  -17.7220 C   0  0  0  0  0  0  0  0  0  0  0  0
   -7.5040   -2.8960  -16.8410 C   0  0  0  0  0  0  0  0  0  0  0  0
  1 11  2  0
  2 14  2  0
  3 12  2  0
  4 18  2  0
  6  8  2  0
  7 17  2  0
  8  5  1  0
  9  7  1  0
  9 16  2  0
 10 19  1  0
 11 20  1  0
 12 10  1  0
 12  1  1  0
 14 13  1  0
 15  1  1  0
 15  4  1  0
 16  4  1  0
 16  6  1  0
 17  8  1  0
 19 20  2  0
 20 14  1  0
M  END
$$$$

     RDKit          3D

 20 21  0  0  0  0  0  0  0  0999 V2000
   -3.8430    0.0460  -20.9190 O   0  0  0  0  0  0  0  0  0  0  0  0
   -2.7920   -0.2340  -18.3290 C   0  0  0  0  0  0  0  0  0  0  0  0
   -3.8060   -0.7200  -18.8760 C   0  0  1  0  0  0  0  0  0  0  0  0
   -5.1680   -1.4100  -17.7540 C   0  0  2  0  0  0  0  0  0  0  0  0
   -4.4010   -0.5740  -19.9950 C   0  0  0  0  0  0  0  0  0  0  0  0
   -3.3820   -3.1060  -16.6240 C   0  0  0  0  0  0  0  0  0  0  0  0
   -2.1130    0.6660  -18.7860 O   0  0  0  0  0  0  0  0  0  0  0  0
   -0.2930   -1.7400  -17.6720 O   0  0  0  0  0  0  0  0  0  0  0  0
   -3.6890   -3.9980  -17.4110 C   0  0  0  0  0  0  0  0  0  0  0  0
   -6.6570   -1.9940  -16.7360 C   0  0  0  0  0  0  0  0  0  0  0  0
   -7.8830   -4.5950  -14.7690 O   0  0  0  0  0  0  0  0  0  0  0  0
   -8.9200   -3.8660  -16.5850 O   0  0  0  0  0  0  0  0  0  0  0  0
   -7.8900   -3.9310  -15.7370 C   0  0  0  0  0  0  0  0  0  0  0  0
   -3.9800   -1.7370  -16.7410 C   0  0  1  0  0  0  0  0  0  0  0  0
   -1.1850   -1.0460  -16.6940 C   0  0  0  0  0  0  0  0  0  0  0  0
   -2.5940   -0.9910  -17.1310 N   0  0  0  0  0  0  0  0  0  0  0  0
   -5.9820   -1.4700  -18.9880 C   0  0  0  0  0  0  0  0  0  0  0  0
   -2.5490   -3.4330  -15.5190 O   0  0  0  0  0  0  0  0  0  0  0  0
   -5.6670   -1.2710  -20.1530 O   0  0  0  0  0  0  0  0  0  0  0  0
   -6.4080   -3.1810  -16.1960 C   0  0  0  0  0  0  0  0  0  0  0  0
  1  5  2  0
  2 16  1  0
  3  5  1  1
  3  2  1  0
  3  4  1  0
  4 14  1  0
  4 10  1  1
  6 18  1  0
  7  2  2  0
  8 15  1  0
  9  6  2  0
 10 20  1  0
 12 13  2  0
 13 11  1  0
 14  6  1  6
 16 14  1  0
 16 15  1  0
 17  4  1  0
 19  5  1  0
 19 17  1  0
 20 13  1  0
M  END
$$$$

     RDKit          3D

 22 23  0  0  0  0  0  0  0  0999 V2000
   -8.4100   -3.1120  -16.1790 S   0  0  2  0  0  0  0  0  0  0  0  0
   -6.4360   -1.0870  -20.7810 O   0  0  0  0  0  0  0  0  0  0  0  0
   -6.5030   -1.6560  -18.3270 C   0  0  1  0  0  0  0  0  0  0  0  0
   -5.8490   -1.2560  -19.5730 C   0  0  0  0  0  0  0  0  0  0  0  0
   -7.7050   -1.8630  -18.2290 C   0  0  0  0  0  0  0  0  0  0  0  0
   -8.7890   -4.5420  -16.4790 O   0  0  0  0  0  0  0  0  0  0  0  0
   -2.8300   -0.1720  -17.7500 C   0  0  2  0  0  0  0  0  0  0  0  0
   -7.9870   -3.1160  -14.7090 O   0  0  0  0  0  0  0  0  0  0  0  0
   -5.7770   -2.1870  -17.3200 C   0  0  1  0  0  0  0  0  0  0  0  0
   -2.3280   -0.6180  -16.3850 O   0  0  0  0  0  0  0  0  0  0  0  0
   -0.3820   -2.8090  -14.7390 O   0  0  0  0  0  0  0  0  0  0  0  0
   -1.5610   -2.5400  -17.3250 C   0  0  0  0  0  0  0  0  0  0  0  0
   -3.9020   -0.3200  -20.5740 C   0  0  0  0  0  0  0  0  0  0  0  0
   -4.4870   -0.8140  -19.3600 N   0  0  0  0  0  0  0  0  0  0  0  0
   -0.0160   -1.3600  -15.6010 P   0  0  0  0  0  0  0  0  0  0  0  0
   -9.7910   -2.3540  -16.8110 O   0  0  0  0  0  0  0  0  0  0  0  0
   -3.9510   -0.9720  -18.0650 C   0  0  0  0  0  0  0  0  0  0  0  0
   -1.0940   -1.2580  -16.6650 C   0  0  2  0  0  0  0  0  0  0  0  0
   -2.0510    0.4890  -18.8220 C   0  0  0  0  0  0  0  0  0  0  0  0
    1.2010   -2.3450  -16.4380 C   0  0  0  0  0  0  0  0  0  0  0  0
   -4.6440   -1.5740  -17.1080 C   0  0  0  0  0  0  0  0  0  0  0  0
   -7.0930   -2.3230  -16.8870 N   0  0  0  0  0  0  0  0  0  0  0  0
  1  8  1  1
  2  4  2  0
  3  5  1  6
  3  9  1  0
  4 14  1  0
  4  3  1  0
  5 22  1  0
  6  1  1  0
  7 19  1  6
  7 10  1  0
  9 21  1  0
  9 22  1  1
 13 14  1  0
 14 17  1  0
 15 20  1  0
 15 11  1  0
 16  1  1  0
 17  7  1  0
 17 21  2  0
 18 12  1  1
 18 10  1  0
 18 15  1  0
 22  1  1  0
M  END
$$$$

     RDKit          3D

 21 23  0  0  0  0  0  0  0  0999 V2000
   -0.6390   -3.3520  -18.6430 C   0  0  0  0  0  0  0  0  0  0  0  0
   -1.6410   -2.4320  -17.9970 N   0  0  0  0  0  0  0  0  0  0  0  0
   -6.7220   -2.9800  -16.0480 C   0  0  0  0  0  0  0  0  0  0  0  0
   -9.8260   -1.6530  -16.4820 O   0  0  0  0  0  0  0  0  0  0  0  0
   -2.1970   -2.6590  -16.8500 N   0  0  0  0  0  0  0  0  0  0  0  0
   -0.2270   -0.7890  -18.8720 C   0  0  0  0  0  0  0  0  0  0  0  0
   -7.4260   -2.5740  -16.9780 C   0  0  2  0  0  0  0  0  0  0  0  0
   -2.0400   -2.5370  -14.3130 S   0  0  0  0  0  0  0  0  0  0  0  0
   -9.8180   -3.2720  -18.1170 N   0  0  0  0  0  0  0  0  0  0  0  0
   -1.0650   -1.2480  -17.7480 C   0  0  2  0  0  0  0  0  0  0  0  0
   -5.0040   -2.2220  -17.6480 C   0  0  0  0  0  0  0  0  0  0  0  0
   -4.6290   -2.9100  -16.6080 C   0  0  0  0  0  0  0  0  0  0  0  0
   -0.0960   -2.1430  -19.4400 C   0  0  0  0  0  0  0  0  0  0  0  0
   -1.7510   -1.8680  -15.8190 C   0  0  0  0  0  0  0  0  0  0  0  0
   -5.8040   -1.4700  -18.3060 C   0  0  0  0  0  0  0  0  0  0  0  0
   -7.0830   -1.6340  -18.0980 C   0  0  0  0  0  0  0  0  0  0  0  0
   -0.8220   -0.7880  -16.2470 C   0  0  0  0  0  0  0  0  0  0  0  0
   -5.4740   -3.2620  -15.5000 C   0  0  0  0  0  0  0  0  0  0  0  0
   -8.8060   -4.4680  -16.3370 O   0  0  0  0  0  0  0  0  0  0  0  0
   -3.2330   -3.6910  -16.7530 C   0  0  0  0  0  0  0  0  0  0  0  0
   -8.9960   -2.9450  -16.8300 S   0  0  2  0  0  0  0  0  0  0  0  0
  2  1  1  0
  2 10  1  0
  2  5  1  0
  3 18  1  0
  5 20  1  0
  5 14  1  0
  7 21  1  0
  7  3  1  1
 21  9  1  6
 10  6  1  6
 10 17  1  0
 11 12  2  0
 12 18  1  0
 13  6  1  0
 13  1  1  0
 14  8  2  0
 15 16  1  0
 15 11  1  0
 16  7  1  0
 17 14  1  0
 20 12  1  0
 21  4  2  0
 21 19  2  0
M  END
$$$$

     RDKit          3D

 19 20  0  0  0  0  0  0  0  0999 V2000
   -1.6840   -1.8050  -18.1740 C   0  0  0  0  0  0  0  0  0  0  0  0
   -3.4090   -1.6840  -19.7350 O   0  0  0  0  0  0  0  0  0  0  0  0
   -8.7410   -2.4750  -16.3300 C   0  0  0  0  0  0  0  0  0  0  0  0
   -8.0070   -3.3130  -15.5900 O   0  0  0  0  0  0  0  0  0  0  0  0
   -3.8610   -2.4180  -17.4340 C   0  0  0  0  0  0  0  0  0  0  0  0
   -8.0230   -3.1110  -18.7110 O   0  0  0  0  0  0  0  0  0  0  0  0
   -1.9930   -2.7840  -15.9710 C   0  0  0  0  0  0  0  0  0  0  0  0
   -6.8840   -3.5260  -15.8170 N   0  0  0  0  0  0  0  0  0  0  0  0
   -1.1190   -2.2880  -17.0260 C   0  0  0  0  0  0  0  0  0  0  0  0
   -9.7150   -1.8670  -16.2180 O   0  0  0  0  0  0  0  0  0  0  0  0
   -8.0520   -0.8240  -18.0090 C   0  0  0  0  0  0  0  0  0  0  0  0
   -6.5120   -2.6560  -16.9450 C   0  0  2  0  0  0  0  0  0  0  0  0
   -0.8620   -1.2180  -19.2500 N   0  0  0  0  0  0  0  0  0  0  0  0
   -4.1920   -2.9880  -15.1120 O   0  0  0  0  0  0  0  0  0  0  0  0
   -7.4610   -0.6340  -19.1880 F   0  0  0  0  0  0  0  0  0  0  0  0
   -3.4430   -2.7400  -16.2200 C   0  0  0  0  0  0  0  0  0  0  0  0
   -7.8820   -2.2820  -17.5690 C   0  0  1  0  0  0  0  0  0  0  0  0
   -3.0420   -2.0620  -18.4700 C   0  0  0  0  0  0  0  0  0  0  0  0
   -5.3130   -2.5860  -17.8760 C   0  0  0  0  0  0  0  0  0  0  0  0
  1  9  2  0
  2 18  1  0
  3 10  2  0
  3  4  1  0
  5 16  1  0
  8  4  1  0
  9  7  1  0
 11 17  1  0
 12 19  1  6
 12  8  1  0
 13  1  1  0
 15 11  1  0
 16  7  2  0
 16 14  1  0
 17  6  1  6
 17 12  1  0
 17  3  1  0
 18  1  1  0
 18  5  2  0
 19  5  1  0
M  END
$$$$

     RDKit          3D

 23 25  0  0  0  0  0  0  0  0999 V2000
   -3.6570   -1.2500  -18.9740 C   0  0  1  0  0  0  0  0  0  0  0  0
   -6.2840   -1.5920  -18.6210 C   0  0  1  0  0  0  0  0  0  0  0  0
   -5.3820   -0.3730  -20.4020 O   0  0  0  0  0  0  0  0  0  0  0  0
   -0.7560   -0.5950  -18.0150 C   0  0  1  0  0  0  0  0  0  0  0  0
   -1.8950   -0.6120  -17.1370 C   0  0  1  0  0  0  0  0  0  0  0  0
   -4.0740   -0.6490  -20.3720 C   0  0  0  0  0  0  0  0  0  0  0  0
   -2.9460   -0.2440  -18.1140 C   0  0  1  0  0  0  0  0  0  0  0  0
   -6.4720   -2.9370  -16.1980 N   0  0  0  0  0  0  0  0  0  0  0  0
   -6.9020   -1.7550  -17.2330 C   0  0  2  0  0  0  0  0  0  0  0  0
   -9.0790   -1.2450  -17.8500 O   0  0  0  0  0  0  0  0  0  0  0  0
   -7.5170   -3.5220  -15.8720 C   0  0  0  0  0  0  0  0  0  0  0  0
   -8.3550   -1.9080  -17.2010 C   0  0  0  0  0  0  0  0  0  0  0  0
   -4.7720   -1.8440  -18.1670 C   0  0  2  0  0  0  0  0  0  0  0  0
   -6.7250   -2.5650  -19.4210 O   0  0  0  0  0  0  0  0  0  0  0  0
   -7.4620   -4.3730  -15.0550 O   0  0  0  0  0  0  0  0  0  0  0  0
    0.5900   -1.3830  -18.1260 C   0  0  0  0  0  0  0  0  0  0  0  0
   -1.2400   -2.9060  -17.3940 O   0  0  0  0  0  0  0  0  0  0  0  0
    0.1850   -2.6340  -17.2820 C   0  0  0  0  0  0  0  0  0  0  0  0
   -1.7690   -1.8710  -16.3310 C   0  0  0  0  0  0  0  0  0  0  0  0
   -8.6510   -2.8200  -16.2090 N   0  0  0  0  0  0  0  0  0  0  0  0
   -4.5290   -1.5190  -16.8360 O   0  0  0  0  0  0  0  0  0  0  0  0
   -1.4980    0.0110  -19.1220 C   0  0  0  0  0  0  0  0  0  0  0  0
   -9.0780   -3.6800  -16.6400 C   0  0  0  0  0  0  0  0  0  0  0  0
  1  6  1  6
  1 13  1  0
  2 14  1  6
  2 13  1  0
  3  6  1  0
  4 22  1  6
  4  5  1  0
  5 19  1  6
  7  1  1  0
  7  5  1  0
  8 11  1  0
  9  2  1  0
  9 12  1  0
  9  8  1  6
 10 12  2  0
 11 15  2  0
 12 20  1  0
 13 21  1  1
 16  4  1  0
 16 18  1  0
 17 18  1  0
 17 19  1  0
 20 11  1  0
  7 22  1  6
 23 20  1  0
M  END
$$$$

     RDKit          3D

 19 20  0  0  0  0  0  0  0  0999 V2000
   -1.6280   -1.0390  -20.2070 O   0  0  0  0  0  0  0  0  0  0  0  0
   -6.3210   -1.5350  -18.2920 C   0  0  0  0  0  0  0  0  0  0  0  0
   -1.3290   -1.4290  -17.8800 C   0  0  0  0  0  0  0  0  0  0  0  0
   -5.4440   -2.0110  -17.3870 C   0  0  0  0  0  0  0  0  0  0  0  0
   -7.7040   -3.6080  -14.9220 O   0  0  0  0  0  0  0  0  0  0  0  0
   -3.4990   -1.3350  -18.8290 C   0  0  0  0  0  0  0  0  0  0  0  0
   -3.1810   -1.9060  -16.4740 C   0  0  0  0  0  0  0  0  0  0  0  0
   -8.1210   -2.3400  -16.9500 C   0  0  0  0  0  0  0  0  0  0  0  0
   -4.0150   -1.7340  -17.5550 C   0  0  0  0  0  0  0  0  0  0  0  0
   -7.2300   -2.9590  -16.0690 C   0  0  0  0  0  0  0  0  0  0  0  0
   -2.0970   -1.2400  -18.9940 C   0  0  0  0  0  0  0  0  0  0  0  0
   -9.4970   -2.5120  -16.6890 O   0  0  0  0  0  0  0  0  0  0  0  0
   -5.9160   -0.9340  -19.4240 F   0  0  0  0  0  0  0  0  0  0  0  0
   -5.1050   -3.4400  -15.4000 F   0  0  0  0  0  0  0  0  0  0  0  0
   -5.9040   -2.7890  -16.3150 C   0  0  0  0  0  0  0  0  0  0  0  0
   -1.8540   -1.7020  -16.6120 C   0  0  0  0  0  0  0  0  0  0  0  0
   -0.2590   -1.5320  -20.5340 C   0  0  0  0  0  0  0  0  0  0  0  0
   -8.3400   -1.0710  -18.8100 F   0  0  0  0  0  0  0  0  0  0  0  0
   -7.6170   -1.6900  -17.9580 C   0  0  0  0  0  0  0  0  0  0  0  0
  1 11  1  0
  2 19  2  0
  2  4  1  0
  3 16  2  0
  4 15  2  0
  6  9  1  0
  8 12  1  0
  8 10  2  0
  9  4  1  0
  9  7  2  0
 10  5  1  0
 11  6  2  0
 11  3  1  0
 13  2  1  0
 15 10  1  0
 15 14  1  0
 16  7  1  0
 17  1  1  0
 18 19  1  0
 19  8  1  0
M  END
$$$$

     RDKit          3D

 15 16  0  0  0  0  0  0  0  0999 V2000
   -7.1860   -2.6490  -16.5110 C   0  0  1  0  0  0  0  0  0  0  0  0
   -5.3620   -0.8810  -19.5390 O   0  0  0  0  0  0  0  0  0  0  0  0
   -5.9990   -1.5080  -18.6020 C   0  0  0  0  0  0  0  0  0  0  0  0
   -9.1770   -2.1810  -17.6500 O   0  0  0  0  0  0  0  0  0  0  0  0
   -2.0910   -2.0460  -19.6820 C   0  0  0  0  0  0  0  0  0  0  0  0
   -5.2790   -1.8900  -17.5070 N   0  0  0  0  0  0  0  0  0  0  0  0
   -7.2440   -1.5910  -18.5920 N   0  0  0  0  0  0  0  0  0  0  0  0
   -7.9670   -2.1860  -17.6060 C   0  0  0  0  0  0  0  0  0  0  0  0
   -7.9600   -3.2240  -15.3650 C   0  0  0  0  0  0  0  0  0  0  0  0
   -7.6540   -4.5400  -14.9540 O   0  0  0  0  0  0  0  0  0  0  0  0
   -3.8440   -1.4250  -17.2380 C   0  0  0  0  0  0  0  0  0  0  0  0
   -5.8760   -2.6550  -16.5700 C   0  0  0  0  0  0  0  0  0  0  0  0
   -5.1790   -3.2350  -15.6740 O   0  0  0  0  0  0  0  0  0  0  0  0
   -2.3510   -0.7950  -19.3660 C   0  0  0  0  0  0  0  0  0  0  0  0
   -2.9000   -1.4090  -18.4810 C   0  0  2  0  0  0  0  0  0  0  0  0
  1  9  1  6
  2  3  2  0
  3  7  1  0
  3  6  1  0
  4  8  2  0
  5 14  1  0
  5 15  1  0
  6 11  1  0
  6 12  1  0
  7  8  1  0
  8  1  1  0
  9 10  1  0
 12  1  1  0
 12 13  2  0
 14 15  1  0
 15 11  1  6
M  END
$$$$

     RDKit          3D

 21 22  0  0  0  0  0  0  0  0999 V2000
   -6.1990   -1.9800  -17.3390 C   0  0  0  0  0  0  0  0  0  0  0  0
   -2.5740    0.4840  -20.2260 C   0  0  0  0  0  0  0  0  0  0  0  0
   -7.4990   -4.2280  -14.8040 O   0  0  0  0  0  0  0  0  0  0  0  0
   -3.4220   -4.1550  -17.4770 O   0  0  0  0  0  0  0  0  0  0  0  0
   -6.2530   -2.8940  -16.2940 C   0  0  0  0  0  0  0  0  0  0  0  0
   -1.1630   -2.3640  -16.6230 C   0  0  0  0  0  0  0  0  0  0  0  0
   -7.4480   -1.5130  -17.8230 C   0  0  0  0  0  0  0  0  0  0  0  0
   -3.2110   -3.0800  -16.8080 C   0  0  0  0  0  0  0  0  0  0  0  0
   -1.8760    0.9450  -19.0430 C   0  0  0  0  0  0  0  0  0  0  0  0
   -1.8480    0.0230  -18.0800 C   0  0  0  0  0  0  0  0  0  0  0  0
   -2.9150   -1.6220  -19.2630 C   0  0  0  0  0  0  0  0  0  0  0  0
   -3.9110   -2.9070  -15.7380 N   0  0  0  0  0  0  0  0  0  0  0  0
  -10.2190   -0.1180  -17.1010 C   0  0  0  0  0  0  0  0  0  0  0  0
   -9.8230   -1.4520  -17.5420 O   0  0  0  0  0  0  0  0  0  0  0  0
   -2.2460   -1.2410  -18.1270 C   0  0  0  0  0  0  0  0  0  0  0  0
   -8.5850   -2.8130  -16.2550 N   0  0  0  0  0  0  0  0  0  0  0  0
   -2.2660   -2.1620  -17.1960 N   0  0  0  0  0  0  0  0  0  0  0  0
   -7.4530   -3.3550  -15.8310 C   0  0  0  0  0  0  0  0  0  0  0  0
   -3.0070   -0.7990  -20.3040 N   0  0  0  0  0  0  0  0  0  0  0  0
   -5.0520   -3.5250  -15.5690 O   0  0  0  0  0  0  0  0  0  0  0  0
   -8.6250   -1.9220  -17.2590 C   0  0  0  0  0  0  0  0  0  0  0  0
  1  5  2  0
  2  9  2  0
  4  8  2  0
  5 18  1  0
  5 20  1  0
  7  1  1  0
  7 21  1  0
  8 12  1  0
  9 10  1  0
 11 15  1  0
 12 20  1  0
 14 21  1  0
 14 13  1  0
 15 10  2  0
 15 17  1  0
 16 18  1  0
 17  8  1  0
 17  6  1  0
 18  3  2  0
 19  2  1  0
 19 11  2  0
 21 16  2  0
M  END
$$$$

     RDKit          3D

 21 22  0  0  0  0  0  0  0  0999 V2000
    0.4030   -1.1220  -18.9540 N   0  0  0  0  0  0  0  0  0  0  0  0
   -5.6770   -1.0510  -17.9680 C   0  0  0  0  0  0  0  0  0  0  0  0
   -9.0100   -1.9660  -15.8060 F   0  0  0  0  0  0  0  0  0  0  0  0
   -6.8500   -2.1730  -19.6750 O   0  0  0  0  0  0  0  0  0  0  0  0
   -2.2010   -1.2810  -18.8570 C   0  0  2  0  0  0  0  0  0  0  0  0
   -3.5110   -1.1720  -19.4390 S   0  0  0  0  0  0  0  0  0  0  0  0
   -1.1700   -0.3960  -16.6200 C   0  0  0  0  0  0  0  0  0  0  0  0
   -8.4370   -2.7620  -17.9960 C   0  0  0  0  0  0  0  0  0  0  0  0
   -2.2900   -0.9170  -17.4810 C   0  0  1  0  0  0  0  0  0  0  0  0
   -3.4600   -1.0180  -17.1700 N   0  0  0  0  0  0  0  0  0  0  0  0
   -6.2680   -1.9730  -17.3820 N   0  0  0  0  0  0  0  0  0  0  0  0
   -0.3970   -0.7700  -21.0990 O   0  0  0  0  0  0  0  0  0  0  0  0
   -7.3420   -3.6340  -15.5690 C   0  0  0  0  0  0  0  0  0  0  0  0
   -4.3380   -0.9810  -18.0850 C   0  0  0  0  0  0  0  0  0  0  0  0
   -0.9600   -1.5360  -19.5410 C   0  0  1  0  0  0  0  0  0  0  0  0
   -9.6320   -4.0440  -16.4950 F   0  0  0  0  0  0  0  0  0  0  0  0
   -7.1480   -2.3190  -18.3910 C   0  0  0  0  0  0  0  0  0  0  0  0
   -5.8390   -2.8010  -16.1490 S   0  0  0  0  0  0  0  0  0  0  0  0
   -7.2190   -4.5770  -14.7860 O   0  0  0  0  0  0  0  0  0  0  0  0
   -8.6900   -3.1540  -16.3840 C   0  0  1  0  0  0  0  0  0  0  0  0
   -1.0610   -0.9590  -20.9100 O   0  0  0  0  0  0  0  0  0  0  0  0
  2 11  1  0
  4 17  2  0
  5 15  1  0
  5  9  1  0
  5  6  1  6
  6 14  1  0
  8 20  1  0
  9 10  1  0
  9  7  1  6
 11 18  1  0
 12 21  1  0
 13 19  2  0
 14  2  1  0
 14 10  2  0
 15  1  1  1
 20 16  1  6
 17  8  1  0
 17 11  1  0
 18 13  1  0
 20  3  1  0
 20 13  1  0
 21 15  1  0
M  END
$$$$

     RDKit          3D

 17 18  0  0  0  0  0  0  0  0999 V2000
   -0.4210    0.1280  -18.7510 O   0  0  0  0  0  0  0  0  0  0  0  0
   -1.8080    0.3940  -19.2300 C   0  0  0  0  0  0  0  0  0  0  0  0
   -2.8610   -0.5580  -20.8340 O   0  0  0  0  0  0  0  0  0  0  0  0
   -5.7500   -1.6450  -18.7610 C   0  0  0  0  0  0  0  0  0  0  0  0
   -3.1730   -3.5810  -16.7310 C   0  0  0  0  0  0  0  0  0  0  0  0
   -8.0040   -1.8730  -18.0290 C   0  0  0  0  0  0  0  0  0  0  0  0
    0.0440    0.2380  -17.3380 C   0  0  0  0  0  0  0  0  0  0  0  0
   -2.0910   -1.1230  -17.5580 C   0  0  2  0  0  0  0  0  0  0  0  0
   -3.6730   -1.7000  -17.5300 N   0  0  0  0  0  0  0  0  0  0  0  0
   -9.1500   -1.7850  -17.8900 O   0  0  0  0  0  0  0  0  0  0  0  0
   -1.0140    1.0110  -16.7230 C   0  0  0  0  0  0  0  0  0  0  0  0
   -2.2570    0.3180  -16.7670 O   0  0  0  0  0  0  0  0  0  0  0  0
   -7.0820   -1.5460  -18.9690 N   0  0  0  0  0  0  0  0  0  0  0  0
   -2.8080   -1.5360  -18.6860 C   0  0  1  0  0  0  0  0  0  0  0  0
   -2.9470   -0.2450  -19.5640 C   0  0  1  0  0  0  0  0  0  0  0  0
   -5.3290   -2.0740  -17.7330 C   0  0  0  0  0  0  0  0  0  0  0  0
   -4.0920   -2.5630  -16.9330 C   0  0  1  0  0  0  0  0  0  0  0  0
  1  7  1  0
  2  1  1  0
  4 16  1  0
  6 10  2  0
  7 11  1  0
  8  9  1  0
  8 12  1  6
  9 17  1  0
 12 11  1  0
 13  4  2  3
 13  6  1  0
 14  8  1  0
 14  9  1  1
 15  3  1  6
 15  2  1  0
 15 14  1  0
 16 17  1  0
 17  5  1  6
M  END
$$$$

     RDKit          3D

 22 23  0  0  0  0  0  0  0  0999 V2000
   -8.4050   -3.9520  -15.9340 C   0  0  0  0  0  0  0  0  0  0  0  0
   -4.3350   -2.6410  -16.1650 C   0  0  0  0  0  0  0  0  0  0  0  0
   -8.4610   -2.6850  -18.0200 C   0  0  0  0  0  0  0  0  0  0  0  0
   -2.1920   -1.2140  -18.9490 C   0  0  0  0  0  0  0  0  0  0  0  0
   -7.9810   -2.7070  -16.6330 C   0  0  2  0  0  0  0  0  0  0  0  0
   -6.6410   -0.5410  -20.3490 O   0  0  0  0  0  0  0  0  0  0  0  0
   -4.0590   -3.9770  -16.5330 O   0  0  0  0  0  0  0  0  0  0  0  0
   -6.1900   -0.9220  -19.2490 C   0  0  0  0  0  0  0  0  0  0  0  0
   -0.9330   -0.8650  -18.7590 F   0  0  0  0  0  0  0  0  0  0  0  0
   -2.9770   -1.6800  -17.8300 C   0  0  2  0  0  0  0  0  0  0  0  0
   -4.1650   -0.6820  -20.2040 N   0  0  0  0  0  0  0  0  0  0  0  0
   -9.2430   -4.6320  -16.3580 O   0  0  0  0  0  0  0  0  0  0  0  0
   -2.7880   -0.6990  -19.9080 C   0  0  0  0  0  0  0  0  0  0  0  0
   -7.7110   -4.2550  -14.9690 O   0  0  0  0  0  0  0  0  0  0  0  0
   -2.1860   -2.1960  -16.6940 O   0  0  0  0  0  0  0  0  0  0  0  0
   -4.4520   -1.8770  -17.4710 C   0  0  2  0  0  0  0  0  0  0  0  0
   -7.0330   -1.0210  -18.1790 C   0  0  1  0  0  0  0  0  0  0  0  0
   -6.5310   -2.8800  -16.7010 O   0  0  0  0  0  0  0  0  0  0  0  0
   -4.2290   -2.1430  -15.1810 O   0  0  0  0  0  0  0  0  0  0  0  0
   -4.7520   -0.8550  -19.1640 C   0  0  0  0  0  0  0  0  0  0  0  0
   -8.3150   -1.4020  -18.4370 O   0  0  0  0  0  0  0  0  0  0  0  0
   -5.9830   -1.7470  -17.3390 C   0  0  1  0  0  0  0  0  0  0  0  0
  1 14  1  0
  2 19  1  0
  3  5  1  0
  4  9  1  0
  4 10  1  0
  5  1  1  1
  6  8  2  0
  7  2  2  0
  8 20  1  0
 10 16  1  0
 10 15  1  6
 11 13  1  0
 11 20  1  0
 12  1  2  0
 13  4  2  3
 16 22  1  0
 16  2  1  1
 17  8  1  0
 17 22  1  0
 18  5  1  0
 17 21  1  6
 21  3  1  0
 22 18  1  6
M  END
$$$$

     RDKit          3D

 19 20  0  0  0  0  0  0  0  0999 V2000
   -1.7750   -2.1440  -17.2300 C   0  0  1  0  0  0  0  0  0  0  0  0
   -5.7750   -1.0410  -20.2760 O   0  0  0  0  0  0  0  0  0  0  0  0
   -5.6420   -2.2900  -17.0360 C   0  0  0  0  0  0  0  0  0  0  0  0
   -9.8960   -2.4270  -16.9170 O   0  0  0  0  0  0  0  0  0  0  0  0
   -3.0870   -2.1410  -16.6730 C   0  0  1  0  0  0  0  0  0  0  0  0
   -7.9800   -2.2980  -16.8840 C   0  0  0  0  0  0  0  0  0  0  0  0
   -4.4100   -1.7420  -17.3710 C   0  0  1  0  0  0  0  0  0  0  0  0
   -3.2730   -2.8240  -15.5160 C   0  0  0  0  0  0  0  0  0  0  0  0
   -7.1520   -2.4060  -19.1630 O   0  0  0  0  0  0  0  0  0  0  0  0
   -6.6590   -3.0070  -16.9150 N   0  0  0  0  0  0  0  0  0  0  0  0
   -1.3340   -0.6870  -17.6750 C   0  0  0  0  0  0  0  0  0  0  0  0
   -8.9370   -4.5540  -17.2350 N   0  0  0  0  0  0  0  0  0  0  0  0
   -0.7470   -0.7290  -19.1450 C   0  0  0  0  0  0  0  0  0  0  0  0
   -6.3380   -1.3940  -18.9960 C   0  0  1  0  0  0  0  0  0  0  0  0
   -4.1770   -0.9230  -18.5000 N   0  0  0  0  0  0  0  0  0  0  0  0
   -2.0550   -2.4780  -14.7420 C   0  0  0  0  0  0  0  0  0  0  0  0
   -9.0030   -3.2060  -16.9450 C   0  0  0  0  0  0  0  0  0  0  0  0
   -4.9800   -1.0740  -19.1600 C   0  0  2  0  0  0  0  0  0  0  0  0
   -1.1450   -2.6680  -15.9480 C   0  0  0  0  0  0  0  0  0  0  0  0
  1 11  1  1
  1  5  1  0
  1 19  1  0
  2 18  1  0
  2 14  1  0
  3 10  1  0
  5  7  1  0
  5  8  1  6
  7  3  1  6
  8 16  1  0
 10  6  1  0
 12 17  1  0
 13 11  1  0
 14  9  1  6
 15  7  1  0
 17  4  2  0
 17  6  1  0
 18 14  1  0
 18 15  1  1
 19 16  1  0
M  END
$$$$

     RDKit          3D

 19 20  0  0  0  0  0  0  0  0999 V2000
   -4.8290   -1.3510  -18.5680 C   0  0  0  0  0  0  0  0  0  0  0  0
   -3.5990   -2.2780  -16.8840 C   0  0  1  0  0  0  0  0  0  0  0  0
   -1.2690    0.3970  -20.0280 C   0  0  0  0  0  0  0  0  0  0  0  0
   -6.3380   -2.3000  -17.0220 C   0  0  1  0  0  0  0  0  0  0  0  0
   -7.3980   -1.8660  -17.9550 C   0  0  2  0  0  0  0  0  0  0  0  0
   -4.9080   -1.7930  -17.2390 C   0  0  2  0  0  0  0  0  0  0  0  0
   -7.8640   -3.6210  -15.7210 O   0  0  0  0  0  0  0  0  0  0  0  0
   -3.4710   -3.5380  -16.0340 N   0  0  0  0  0  0  0  0  0  0  0  0
   -2.2460   -1.8950  -17.4870 C   0  0  0  0  0  0  0  0  0  0  0  0
   -7.1540   -1.4920  -19.2430 C   0  0  0  0  0  0  0  0  0  0  0  0
   -9.0820   -1.6730  -17.3090 Cl  0  0  0  0  0  0  0  0  0  0  0  0
   -6.6810   -3.0600  -15.8120 C   0  0  0  0  0  0  0  0  0  0  0  0
   -1.4090    1.0560  -18.9910 C   0  0  0  0  0  0  0  0  0  0  0  0
   -2.2500   -0.8210  -18.5220 N   0  0  0  0  0  0  0  0  0  0  0  0
   -1.1820   -2.2260  -17.1850 O   0  0  0  0  0  0  0  0  0  0  0  0
   -5.7700   -3.5140  -15.0410 O   0  0  0  0  0  0  0  0  0  0  0  0
   -1.9610   -0.8420  -19.7840 C   0  0  0  0  0  0  0  0  0  0  0  0
   -1.9080    0.4130  -18.0010 N   0  0  0  0  0  0  0  0  0  0  0  0
   -5.8090   -1.1130  -19.5070 C   0  0  0  0  0  0  0  0  0  0  0  0
  6  1  1  6
  2  8  1  6
  3 17  2  0
  3 13  1  0
  4 12  1  1
  5 11  1  1
  5  4  1  0
  6  4  1  0
  6  2  1  0
  9 15  2  0
  9  2  1  0
 10  5  1  0
 12  7  2  0
 12 16  1  0
 13 18  2  0
 14 18  1  0
 14  9  1  0
 17 14  1  0
 19 10  1  0
 19  1  2  0
M  END
$$$$

     RDKit          3D

 25 26  0  0  0  0  0  0  0  0999 V2000
   -4.2750   -2.9930  -16.3990 O   0  0  0  0  0  0  0  0  0  0  0  0
   -7.5390   -4.6700  -14.8860 O   0  0  0  0  0  0  0  0  0  0  0  0
   -7.1240   -1.8870  -18.4340 C   0  0  0  0  0  0  0  0  0  0  0  0
   -0.2930   -2.6240  -20.1150 C   0  0  0  0  0  0  0  0  0  0  0  0
    1.0660   -1.0560  -21.0510 O   0  0  0  0  0  0  0  0  0  0  0  0
   -8.2590   -1.2160  -18.4070 N   0  0  0  0  0  0  0  0  0  0  0  0
   -3.0820   -0.3010  -17.6250 C   0  0  0  0  0  0  0  0  0  0  0  0
   -7.1240   -3.3490  -14.9890 C   0  0  0  0  0  0  0  0  0  0  0  0
   -4.0560   -2.4150  -17.2720 C   0  0  0  0  0  0  0  0  0  0  0  0
   -9.1770   -1.4450  -17.3540 C   0  0  0  0  0  0  0  0  0  0  0  0
   -7.0920   -2.9210  -19.1800 O   0  0  0  0  0  0  0  0  0  0  0  0
    0.3020   -0.1440  -19.2900 C   0  0  0  0  0  0  0  0  0  0  0  0
   -2.9760   -1.7150  -17.7150 C   0  0  1  0  0  0  0  0  0  0  0  0
   -1.8720    0.2770  -16.8620 C   0  0  0  0  0  0  0  0  0  0  0  0
   -0.5350    0.1000  -17.6400 C   0  0  0  0  0  0  0  0  0  0  0  0
   -2.2910   -1.9550  -18.5270 C   0  0  2  0  0  0  0  0  0  0  0  0
   -5.9300   -1.5390  -17.6280 C   0  0  0  0  0  0  0  0  0  0  0  0
    0.5770   -1.4960  -19.8680 C   0  0  1  0  0  0  0  0  0  0  0  0
   -8.2300   -3.8740  -15.3650 C   0  0  1  0  0  0  0  0  0  0  0  0
   -8.9440   -3.8370  -16.3300 O   0  0  0  0  0  0  0  0  0  0  0  0
   -0.9070   -2.8800  -18.7280 C   0  0  0  0  0  0  0  0  0  0  0  0
   -8.7300   -2.2400  -16.3770 O   0  0  0  0  0  0  0  0  0  0  0  0
  -10.5350   -0.6300  -17.5200 S   0  0  0  0  0  0  0  0  0  0  0  0
   -2.4720   -0.8970  -19.8020 C   0  0  0  0  0  0  0  0  0  0  0  0
   -5.0780   -2.1490  -17.9070 N   0  0  0  0  0  0  0  0  0  0  0  0
  3  6  1  0
  3 17  1  0
  4 18  1  0
  4 21  1  0
  6 10  1  0
  7 14  1  0
  8  2  1  0
  9  1  2  0
 10 22  1  0
 11  3  2  0
 12 15  1  0
 13  7  1  0
 13  9  1  6
 15 14  1  0
 16 24  1  1
 16 13  1  0
 18  5  1  6
 18 12  1  0
 19 20  1  6
 19  8  1  0
 19  2  1  0
 21 16  1  0
 22 20  1  0
 23 10  2  0
 25 17  1  0
 25  9  1  0
M  END
$$$$

     RDKit          3D

 23 25  0  0  0  0  0  0  0  0999 V2000
   -5.0480   -2.9610  -15.5970 C   0  0  0  0  0  0  0  0  0  0  0  0
   -7.9530   -3.0550  -15.7210 C   0  0  0  0  0  0  0  0  0  0  0  0
   -0.9630   -2.9870  -17.5720 C   0  0  0  0  0  0  0  0  0  0  0  0
   -2.5320   -1.8370  -18.7400 O   0  0  0  0  0  0  0  0  0  0  0  0
   -8.7250   -3.4960  -16.8770 C   0  0  1  0  0  0  0  0  0  0  0  0
   -6.8850   -3.2370  -19.3540 O   0  0  0  0  0  0  0  0  0  0  0  0
   -1.2310   -0.6930  -20.8960 O   0  0  0  0  0  0  0  0  0  0  0  0
   -7.2120   -2.6300  -18.2980 C   0  0  0  0  0  0  0  0  0  0  0  0
   -4.0580   -2.4900  -14.7460 O   0  0  0  0  0  0  0  0  0  0  0  0
   -9.8500   -4.2370  -17.3450 C   0  0  0  0  0  0  0  0  0  0  0  0
   -8.4030   -2.4540  -17.8100 N   0  0  0  0  0  0  0  0  0  0  0  0
   -9.5800   -1.1910  -16.3130 O   0  0  0  0  0  0  0  0  0  0  0  0
   -4.0900   -1.5320  -17.2840 O   0  0  0  0  0  0  0  0  0  0  0  0
   -6.3160   -1.6830  -17.5150 C   0  0  2  0  0  0  0  0  0  0  0  0
   -2.2540   -2.9670  -16.7570 C   0  0  0  0  0  0  0  0  0  0  0  0
   -0.4010   -2.5410  -19.5250 C   0  0  0  0  0  0  0  0  0  0  0  0
   -5.0840   -2.3750  -16.8960 C   0  0  2  0  0  0  0  0  0  0  0  0
   -2.9170   -1.7880  -17.3400 C   0  0  1  0  0  0  0  0  0  0  0  0
   -1.3090   -1.9240  -18.4880 C   0  0  2  0  0  0  0  0  0  0  0  0
   -7.2650   -1.7100  -16.2070 C   0  0  1  0  0  0  0  0  0  0  0  0
   -0.6810   -1.8290  -20.7420 C   0  0  0  0  0  0  0  0  0  0  0  0
   -8.4600   -1.3690  -17.0450 C   0  0  1  0  0  0  0  0  0  0  0  0
   -5.7310   -0.6920  -18.5120 O   0  0  0  0  0  0  0  0  0  0  0  0
  1  9  1  0
  3 15  1  0
  4 19  1  0
  4 18  1  0
  5 10  1  1
  5  2  1  0
  6  8  2  0
  7 21  2  0
  8 11  1  0
  8 14  1  0
 11 22  1  0
 11  5  1  0
 13 17  1  0
 14 23  1  6
 14 17  1  0
 14 20  1  0
 17  1  1  1
 18 13  1  6
 18 15  1  0
 19 16  1  6
 19  3  1  0
 20  2  1  6
 21 16  1  0
 22 12  1  1
 22 20  1  0
M  END
$$$$

     RDKit          3D

 22 23  0  0  0  0  0  0  0  0999 V2000
   -4.5200   -2.7230  -15.9810 C   0  0  0  0  0  0  0  0  0  0  0  0
   -9.0570   -3.4840  -16.5410 C   0  0  0  0  0  0  0  0  0  0  0  0
   -4.2650   -0.6270  -20.5210 O   0  0  0  0  0  0  0  0  0  0  0  0
   -9.3940   -2.8220  -17.5520 N   0  0  0  0  0  0  0  0  0  0  0  0
   -7.9520   -3.4640  -15.8960 N   0  0  0  0  0  0  0  0  0  0  0  0
   -3.5070   -2.7940  -15.2510 O   0  0  0  0  0  0  0  0  0  0  0  0
   -5.0160   -1.5910  -18.4580 C   0  0  0  0  0  0  0  0  0  0  0  0
   -0.7790    0.0480  -17.5620 C   0  0  2  0  0  0  0  0  0  0  0  0
   -4.3900   -2.3370  -17.3640 C   0  0  2  0  0  0  0  0  0  0  0  0
   -2.2910   -0.0920  -17.4080 C   0  0  0  0  0  0  0  0  0  0  0  0
   -3.3570   -3.0570  -17.9960 O   0  0  0  0  0  0  0  0  0  0  0  0
   -0.2170   -1.3660  -18.1070 C   0  0  0  0  0  0  0  0  0  0  0  0
   -2.8050   -0.3200  -18.7090 N   0  0  0  0  0  0  0  0  0  0  0  0
   -3.9820   -0.8010  -19.3370 C   0  0  0  0  0  0  0  0  0  0  0  0
   -7.1200   -2.2470  -17.6360 C   0  0  0  0  0  0  0  0  0  0  0  0
   -8.3650   -2.1590  -18.0610 C   0  0  0  0  0  0  0  0  0  0  0  0
   -5.7390   -3.0690  -15.4860 N   0  0  0  0  0  0  0  0  0  0  0  0
    0.0030   -2.3950  -17.2790 O   0  0  0  0  0  0  0  0  0  0  0  0
   -6.2340   -1.5730  -18.6910 C   0  0  0  0  0  0  0  0  0  0  0  0
   -6.9380   -2.9200  -16.3460 C   0  0  0  0  0  0  0  0  0  0  0  0
    0.0470    0.3870  -16.3990 C   0  0  0  0  0  0  0  0  0  0  0  0
   -2.0060    0.5150  -19.5980 C   0  0  0  0  0  0  0  0  0  0  0  0
  1 17  1  0
  1  6  2  0
  2  5  2  0
  3 14  2  0
  4  2  1  0
  7  9  1  0
  8 10  1  0
  8 21  1  1
  9 11  1  6
  9  1  1  0
 12  8  1  0
 12 18  1  0
 13 10  1  0
 14 13  1  0
 14  7  1  0
 15 20  2  0
 16 15  1  0
 16  4  2  0
 19  7  2  0
 19 15  1  0
 20  5  1  0
 20 17  1  0
 22 13  1  0
M  END
$$$$

     RDKit          3D

 22 25  0  0  0  0  0  0  0  0999 V2000
   -9.0980   -2.5440  -17.2110 C   0  0  0  0  0  0  0  0  0  0  0  0
   -2.3270   -3.2370  -15.1540 C   0  0  0  0  0  0  0  0  0  0  0  0
   -7.5800   -2.4860  -17.4570 C   0  0  0  0  0  0  0  0  0  0  0  0
   -3.5740   -2.2700  -17.0500 C   0  0  0  0  0  0  0  0  0  0  0  0
   -1.3610   -1.2900  -17.3160 C   0  0  0  0  0  0  0  0  0  0  0  0
   -2.6980   -1.5090  -17.8390 C   0  0  0  0  0  0  0  0  0  0  0  0
   -4.8800   -2.2910  -17.3420 C   0  0  0  0  0  0  0  0  0  0  0  0
   -7.6960   -4.6080  -14.8490 O   0  0  0  0  0  0  0  0  0  0  0  0
   -6.9520   -1.8790  -18.5390 C   0  0  0  0  0  0  0  0  0  0  0  0
   -0.6180   -0.1410  -17.9960 N   0  0  0  0  0  0  0  0  0  0  0  0
   -2.9900   -1.2010  -19.1120 O   0  0  0  0  0  0  0  0  0  0  0  0
   -1.1260   -2.5970  -15.2000 C   0  0  0  0  0  0  0  0  0  0  0  0
   -1.9140   -0.8830  -20.0420 C   0  0  0  0  0  0  0  0  0  0  0  0
   -7.5810   -1.3090  -19.4980 O   0  0  0  0  0  0  0  0  0  0  0  0
   -5.5290   -1.8240  -18.4380 C   0  0  0  0  0  0  0  0  0  0  0  0
   -0.7570   -1.7840  -16.2130 C   0  0  0  0  0  0  0  0  0  0  0  0
   -5.6060   -3.0590  -16.4400 C   0  0  0  0  0  0  0  0  0  0  0  0
   -3.3040   -2.9800  -16.0300 C   0  0  0  0  0  0  0  0  0  0  0  0
   -9.2030   -3.4110  -16.0750 N   0  0  0  0  0  0  0  0  0  0  0  0
   -7.9250   -3.7730  -15.6940 C   0  0  0  0  0  0  0  0  0  0  0  0
   -6.9540   -3.1130  -16.4310 C   0  0  0  0  0  0  0  0  0  0  0  0
   -0.6330   -0.2830  -19.4480 C   0  0  0  0  0  0  0  0  0  0  0  0
  1 19  2  0
  3  1  1  0
  3 21  2  0
  4 18  1  0
  5 16  2  0
  6  5  1  0
  6  4  2  0
  7  4  1  0
  7 17  2  0
  9 15  2  0
  9  3  1  0
 10  5  1  0
 11  6  1  0
 12  2  1  0
 13 22  2  0
 13 11  1  0
 14  9  1  0
 15  7  1  0
 16 12  1  0
 17 21  1  0
 18  2  2  0
 19 20  1  0
 20  8  2  0
 21 20  1  0
 22 10  1  0
M  END
$$$$

     RDKit          3D

 21 24  0  0  0  0  0  0  0  0999 V2000
   -1.8690    0.9260  -17.1630 C   0  0  0  0  0  0  0  0  0  0  0  0
   -7.0770   -1.6990  -17.8740 C   0  0  0  0  0  0  0  0  0  0  0  0
   -3.7290   -2.5890  -16.8190 C   0  0  1  0  0  0  0  0  0  0  0  0
   -8.4600   -2.7910  -16.3850 N   0  0  0  0  0  0  0  0  0  0  0  0
   -2.3160   -2.1520  -17.0790 C   0  0  2  0  0  0  0  0  0  0  0  0
   -1.4090   -2.7490  -18.3180 S   0  0  0  0  0  0  0  0  0  0  0  0
   -9.3520   -1.4630  -17.9720 O   0  0  0  0  0  0  0  0  0  0  0  0
   -8.3430   -1.9630  -17.4410 C   0  0  0  0  0  0  0  0  0  0  0  0
   -1.0340   -1.1870  -19.1870 C   0  0  1  0  0  0  0  0  0  0  0  0
   -0.8960   -1.3830  -20.3070 O   0  0  0  0  0  0  0  0  0  0  0  0
   -5.9740   -2.2840  -17.2330 C   0  0  0  0  0  0  0  0  0  0  0  0
   -2.9810   -0.1750  -18.8640 C   0  0  0  0  0  0  0  0  0  0  0  0
   -1.1250    1.3560  -19.0920 C   0  0  0  0  0  0  0  0  0  0  0  0
   -2.7510   -3.0610  -15.7840 C   0  0  0  0  0  0  0  0  0  0  0  0
   -7.4590   -3.3130  -15.6840 C   0  0  0  0  0  0  0  0  0  0  0  0
   -1.9840    0.2000  -18.7340 C   0  0  1  0  0  0  0  0  0  0  0  0
   -6.2140   -3.0090  -16.0740 N   0  0  0  0  0  0  0  0  0  0  0  0
   -4.8010   -2.0890  -17.7520 C   0  0  2  0  0  0  0  0  0  0  0  0
   -7.6210   -4.1330  -14.7950 O   0  0  0  0  0  0  0  0  0  0  0  0
   -4.2490   -3.7270  -17.5640 O   0  0  0  0  0  0  0  0  0  0  0  0
   -0.8570    1.8970  -17.7600 C   0  0  0  0  0  0  0  0  0  0  0  0
  2  8  1  0
  2 11  1  0
  3 14  1  1
  4 15  1  0
  5  6  1  6
  5  3  1  0
  5 14  1  0
  7  8  2  0
  8  4  1  0
  9 10  1  6
  9 16  1  0
  9  6  1  0
 11 17  2  0
 16 12  1  6
 13 16  1  0
 13 21  1  0
 15 19  2  0
 16  1  1  0
 17 15  1  0
 18 20  1  0
 18 11  1  1
 18  3  1  0
 20  3  1  0
 21  1  1  0
M  END
$$$$

     RDKit          3D

 20 22  0  0  0  0  0  0  0  0999 V2000
   -5.0350   -1.4320  -17.4250 C   0  0  1  0  0  0  0  0  0  0  0  0
   -2.8740   -1.5180  -16.6810 C   0  0  2  0  0  0  0  0  0  0  0  0
   -3.6430   -4.3180  -17.3320 O   0  0  0  0  0  0  0  0  0  0  0  0
   -4.1660   -2.1070  -16.7360 C   0  0  2  0  0  0  0  0  0  0  0  0
   -3.4570   -0.4600  -18.8440 C   0  0  0  0  0  0  0  0  0  0  0  0
   -7.9940   -3.2480  -16.0980 C   0  0  0  0  0  0  0  0  0  0  0  0
   -6.9620   -1.8370  -19.0230 C   0  0  0  0  0  0  0  0  0  0  0  0
   -1.2830   -0.2340  -19.7780 C   0  0  0  0  0  0  0  0  0  0  0  0
   -1.3040   -1.7290  -19.7790 C   0  0  0  0  0  0  0  0  0  0  0  0
   -7.0550   -3.3220  -15.2190 O   0  0  0  0  0  0  0  0  0  0  0  0
   -4.5080   -1.3390  -18.6610 O   0  0  0  0  0  0  0  0  0  0  0  0
   -9.1130   -1.3010  -17.1590 C   0  0  0  0  0  0  0  0  0  0  0  0
   -6.6870   -1.7010  -17.6000 C   0  0  1  0  0  0  0  0  0  0  0  0
   -2.3550   -3.4790  -15.5090 O   0  0  0  0  0  0  0  0  0  0  0  0
   -2.1110   -0.9070  -19.0120 C   0  0  2  0  0  0  0  0  0  0  0  0
   -1.7710   -1.1680  -17.5860 O   0  0  0  0  0  0  0  0  0  0  0  0
   -8.8360   -4.1510  -16.1520 O   0  0  0  0  0  0  0  0  0  0  0  0
   -7.9170   -2.3890  -17.1220 C   0  0  1  0  0  0  0  0  0  0  0  0
   -3.1210   -3.0400  -16.5700 C   0  0  2  0  0  0  0  0  0  0  0  0
   -6.9480   -3.1870  -19.4580 O   0  0  0  0  0  0  0  0  0  0  0  0
  1 13  1  0
  4  1  1  6
  2 16  1  6
  2 19  1  0
 19  3  1  6
  4  2  1  0
  4 19  1  0
  5 11  1  0
  6 10  1  0
 15  8  1  6
  9  8  1  0
  9 15  1  0
  1 11  1  6
 13  7  1  6
 13 18  1  0
 15  5  1  0
 15 16  1  0
 17  6  2  0
 18 12  1  1
 18  6  1  0
 19 14  1  0
 20  7  1  0
M  END
$$$$

     RDKit          3D

 21 23  0  0  0  0  0  0  0  0999 V2000
   -6.0860   -3.4120  -15.7300 N   0  0  0  0  0  0  0  0  0  0  0  0
   -1.7560   -1.8070  -19.2140 C   0  0  0  0  0  0  0  0  0  0  0  0
   -3.7010   -4.0560  -16.7040 C   0  0  0  0  0  0  0  0  0  0  0  0
    0.2410   -0.9660  -20.7320 C   0  0  0  0  0  0  0  0  0  0  0  0
   -0.4400   -2.9430  -17.1590 C   0  0  0  0  0  0  0  0  0  0  0  0
   -2.7110   -3.2470  -17.2240 N   0  0  0  0  0  0  0  0  0  0  0  0
   -6.2810   -1.7420  -17.4940 C   0  0  0  0  0  0  0  0  0  0  0  0
    0.7080   -0.1830  -19.4710 C   0  0  1  0  0  0  0  0  0  0  0  0
   -7.8850   -4.2020  -14.8740 O   0  0  0  0  0  0  0  0  0  0  0  0
   -1.6980   -2.7970  -16.4590 N   0  0  0  0  0  0  0  0  0  0  0  0
   -4.1520   -2.7170  -17.0580 C   0  0  0  0  0  0  0  0  0  0  0  0
   -7.4750   -3.4200  -15.7040 C   0  0  0  0  0  0  0  0  0  0  0  0
   -8.2890   -2.6550  -16.5050 C   0  0  0  0  0  0  0  0  0  0  0  0
   -1.1860   -1.3590  -20.5860 C   0  0  0  0  0  0  0  0  0  0  0  0
   -0.0920    1.0000  -19.4500 C   0  0  0  0  0  0  0  0  0  0  0  0
   -5.3090   -1.1590  -19.6270 N   0  0  0  0  0  0  0  0  0  0  0  0
   -7.7090   -1.7880  -17.3820 C   0  0  0  0  0  0  0  0  0  0  0  0
    0.6160   -1.2770  -18.4220 C   0  0  0  0  0  0  0  0  0  0  0  0
   -5.5590   -2.6270  -16.6900 C   0  0  0  0  0  0  0  0  0  0  0  0
   -5.5940   -0.8720  -18.2730 C   0  0  0  0  0  0  0  0  0  0  0  0
   -0.5200   -2.1750  -18.3930 N   0  0  0  0  0  0  0  0  0  0  0  0
  1 12  1  0
  2 21  1  0
  4 14  1  0
  4  8  1  0
  5 10  1  0
  6 11  1  0
  6  3  1  0
  6 10  1  0
  7 17  2  0
  7 19  1  0
  8 15  1  1
  8 18  1  0
 11  3  1  0
 11 19  1  0
 12  9  2  0
 13 12  1  0
 14  2  1  0
 16 20  1  0
 17 13  1  0
 18 21  1  0
 19  1  2  0
 20  7  1  0
 21  5  1  0
M  END
$$$$

     RDKit          3D

 22 24  0  0  0  0  0  0  0  0999 V2000
   -1.5840   -1.0790  -18.7740 C   0  0  1  0  0  0  0  0  0  0  0  0
   -2.7430    0.5320  -17.4080 C   0  0  0  0  0  0  0  0  0  0  0  0
   -7.8910   -3.6740  -15.7790 C   0  0  0  0  0  0  0  0  0  0  0  0
   -1.0530   -0.8590  -20.1570 C   0  0  0  0  0  0  0  0  0  0  0  0
   -4.3200   -2.9150  -16.6420 C   0  0  0  0  0  0  0  0  0  0  0  0
    0.1100   -1.8800  -20.1790 C   0  0  0  0  0  0  0  0  0  0  0  0
   -4.1640   -0.9720  -19.5520 C   0  0  0  0  0  0  0  0  0  0  0  0
    2.2930   -1.2810  -19.0910 O   0  0  0  0  0  0  0  0  0  0  0  0
   -9.9980   -1.4150  -17.4290 O   0  0  0  0  0  0  0  0  0  0  0  0
    0.6780   -1.0120  -17.6510 C   0  0  0  0  0  0  0  0  0  0  0  0
   -0.7710   -0.5710  -18.0380 C   0  0  0  0  0  0  0  0  0  0  0  0
    1.1910   -1.8030  -18.9810 C   0  0  1  0  0  0  0  0  0  0  0  0
   -8.0360   -4.4900  -14.9030 O   0  0  0  0  0  0  0  0  0  0  0  0
   -5.0500   -1.7260  -17.2230 C   0  0  2  0  0  0  0  0  0  0  0  0
   -5.3600   -3.4700  -15.8030 N   0  0  0  0  0  0  0  0  0  0  0  0
   -9.0310   -3.2070  -16.4430 C   0  0  0  0  0  0  0  0  0  0  0  0
   -2.9960   -0.4200  -18.5630 C   0  0  0  0  0  0  0  0  0  0  0  0
   -8.9580   -1.9740  -17.1110 C   0  0  0  0  0  0  0  0  0  0  0  0
   -6.4550   -1.7720  -16.7170 C   0  0  1  0  0  0  0  0  0  0  0  0
   -7.6850   -1.4320  -17.5450 C   0  0  0  0  0  0  0  0  0  0  0  0
   -6.6690   -3.0450  -16.0630 N   0  0  0  0  0  0  0  0  0  0  0  0
   -5.1320   -1.8450  -18.8350 C   0  0  0  0  0  0  0  0  0  0  0  0
  1 17  1  6
  1 11  1  0
  3 13  2  0
  4  1  1  0
  5 15  1  0
  6  4  1  0
  6 12  1  0
  7 22  1  0
  7 17  1  0
  9 18  2  0
 11 10  1  0
 12  8  1  6
 12 10  1  0
 14 22  1  6
 14 19  1  0
 14  5  1  0
 16  3  1  0
 17  2  1  0
 18 16  1  0
 19 20  1  6
 19 21  1  0
 20 18  1  0
 21 15  1  0
 21  3  1  0
M  END
$$$$

     RDKit          3D

 20 21  0  0  0  0  0  0  0  0999 V2000
    1.3340   -2.3510  -19.9380 O   0  0  0  0  0  0  0  0  0  0  0  0
    0.2610   -0.5220  -21.6620 C   0  0  0  0  0  0  0  0  0  0  0  0
   -0.4220   -2.1250  -18.4390 C   0  0  0  0  0  0  0  0  0  0  0  0
   -3.9990   -0.9230  -17.4260 C   0  0  0  0  0  0  0  0  0  0  0  0
   -1.7340   -0.5480  -20.2600 C   0  0  0  0  0  0  0  0  0  0  0  0
   -6.0390   -1.3350  -19.2280 C   0  0  0  0  0  0  0  0  0  0  0  0
   -7.6860   -1.4840  -17.4840 O   0  0  0  0  0  0  0  0  0  0  0  0
   -8.7880   -3.5060  -18.1170 N   0  0  0  0  0  0  0  0  0  0  0  0
    0.2270   -2.9170  -17.5150 O   0  0  0  0  0  0  0  0  0  0  0  0
   -8.6100   -2.5700  -16.8800 S   0  0  2  0  0  0  0  0  0  0  0  0
   -4.6870   -1.0350  -19.7140 N   0  0  0  0  0  0  0  0  0  0  0  0
   -1.5550   -1.5630  -18.1100 C   0  0  0  0  0  0  0  0  0  0  0  0
   -5.1680   -1.4320  -17.0000 C   0  0  0  0  0  0  0  0  0  0  0  0
   -6.3740   -1.4570  -17.9110 C   0  0  0  0  0  0  0  0  0  0  0  0
   -2.3740   -0.9820  -19.1340 C   0  0  0  0  0  0  0  0  0  0  0  0
    0.1760   -1.8720  -19.6140 N   0  0  0  0  0  0  0  0  0  0  0  0
   -0.4060   -0.9630  -20.4740 C   0  0  1  0  0  0  0  0  0  0  0  0
   -9.7740   -1.9100  -16.3790 O   0  0  0  0  0  0  0  0  0  0  0  0
   -3.6500   -0.9830  -18.7720 C   0  0  0  0  0  0  0  0  0  0  0  0
   -7.8950   -3.2670  -15.7920 O   0  0  0  0  0  0  0  0  0  0  0  0
  1 16  1  0
  3 12  1  0
  3  9  2  0
  4 13  2  0
  5 15  2  0
  6 14  2  0
  7 10  1  0
 10  8  1  6
 10 18  1  0
 10 20  1  0
 11  6  1  0
 11 19  2  0
 14  7  1  0
 14 13  1  0
 15 19  1  0
 15 12  1  0
 16  3  1  0
 17  2  1  6
 17  5  1  0
 17 16  1  0
 19  4  1  0
M  END
$$$$

     RDKit          3D

 18 21  0  0  0  0  0  0  0  0999 V2000
   -3.4330   -1.8860  -16.7940 C   0  0  2  0  0  0  0  0  0  0  0  0
   -3.0210   -0.6040  -17.5900 C   0  0  1  0  0  0  0  0  0  0  0  0
   -7.4540   -1.7800  -17.3860 C   0  0  1  0  0  0  0  0  0  0  0  0
   -2.3870    0.3390  -19.4250 O   0  0  0  0  0  0  0  0  0  0  0  0
   -3.4670   -3.0990  -17.3140 C   0  0  0  0  0  0  0  0  0  0  0  0
   -1.1060   -1.2890  -16.3290 O   0  0  0  0  0  0  0  0  0  0  0  0
   -6.9360   -0.7040  -20.4730 O   0  0  0  0  0  0  0  0  0  0  0  0
   -4.6330   -1.1710  -19.3130 C   0  0  0  0  0  0  0  0  0  0  0  0
   -5.0420   -1.4930  -16.8490 O   0  0  0  0  0  0  0  0  0  0  0  0
   -6.8260   -2.1480  -18.6120 C   0  0  1  0  0  0  0  0  0  0  0  0
   -1.3500   -0.3200  -17.3760 C   0  0  0  0  0  0  0  0  0  0  0  0
   -7.0750   -2.9900  -16.3820 O   0  0  0  0  0  0  0  0  0  0  0  0
   -7.3010   -3.2740  -19.3130 O   0  0  0  0  0  0  0  0  0  0  0  0
   -1.9730   -2.4650  -16.3660 C   0  0  0  0  0  0  0  0  0  0  0  0
   -1.6380   -3.4460  -15.9330 O   0  0  0  0  0  0  0  0  0  0  0  0
   -6.2040   -1.1610  -19.5640 C   0  0  0  0  0  0  0  0  0  0  0  0
   -3.0340   -0.8970  -18.8630 C   0  0  2  0  0  0  0  0  0  0  0  0
   -5.8380   -2.4370  -17.6200 C   0  0  2  0  0  0  0  0  0  0  0  0
  1  5  1  6
  1 14  1  0
  2 11  1  1
  2  1  1  0
  3 12  1  1
  7 16  2  0
  8 17  1  0
  9  1  1  0
 10 13  1  6
 10 18  1  0
 10  3  1  0
 11  6  1  0
 14  6  1  0
 14 15  2  0
 16  8  1  0
 16 10  1  0
 17  4  1  6
 17  2  1  0
 18  3  1  0
 18  9  1  6
 18 12  1  0
M  END
$$$$

     RDKit          3D

 22 23  0  0  0  0  0  0  0  0999 V2000
   -6.3610   -1.5910  -18.8140 C   0  0  0  0  0  0  0  0  0  0  0  0
   -7.7160   -1.8540  -18.5480 C   0  0  0  0  0  0  0  0  0  0  0  0
   -1.9890   -0.2190  -18.8700 C   0  0  0  0  0  0  0  0  0  0  0  0
   -8.1760   -4.4890  -15.1850 O   0  0  0  0  0  0  0  0  0  0  0  0
   -1.9370   -2.7970  -15.4620 C   0  0  0  0  0  0  0  0  0  0  0  0
   -3.8220   -1.1590  -19.4990 O   0  0  0  0  0  0  0  0  0  0  0  0
    0.2460   -0.7410  -21.8780 C   0  0  0  0  0  0  0  0  0  0  0  0
   -7.1590   -2.8470  -16.4940 C   0  0  0  0  0  0  0  0  0  0  0  0
   -3.1060   -0.0530  -19.4460 C   0  0  0  0  0  0  0  0  0  0  0  0
   -6.1000   -0.9950  -19.7800 O   0  0  0  0  0  0  0  0  0  0  0  0
    1.4040   -1.5680  -21.7040 O   0  0  0  0  0  0  0  0  0  0  0  0
   -7.7040   -2.5220  -14.3140 O   0  0  0  0  0  0  0  0  0  0  0  0
   -0.7780   -0.6380  -20.7160 N   0  0  0  0  0  0  0  0  0  0  0  0
   -3.9800   -1.8400  -17.9860 C   0  0  0  0  0  0  0  0  0  0  0  0
   -0.9240    0.0520  -19.5270 C   0  0  0  0  0  0  0  0  0  0  0  0
   -1.9730   -0.7750  -17.5080 C   0  0  0  0  0  0  0  0  0  0  0  0
   -8.1490   -2.4480  -17.4320 C   0  0  0  0  0  0  0  0  0  0  0  0
   -5.7650   -2.6340  -16.6180 C   0  0  0  0  0  0  0  0  0  0  0  0
   -7.7270   -3.3090  -15.1970 C   0  0  0  0  0  0  0  0  0  0  0  0
   -3.0890   -2.1460  -15.9450 O   0  0  0  0  0  0  0  0  0  0  0  0
   -2.8900   -2.0060  -17.3870 C   0  0  1  0  0  0  0  0  0  0  0  0
   -5.2320   -2.0710  -17.8100 C   0  0  0  0  0  0  0  0  0  0  0  0
  1  2  1  0
  1 22  1  0
  2 17  2  0
  3 15  1  0
  3 16  1  0
  6  9  1  0
  6 14  1  0
  7 11  1  0
  7 13  1  0
  8 19  1  0
  9  3  1  0
 10  1  2  0
 13 15  2  3
 14 22  2  3
 14 21  1  0
 16 21  1  0
 17  8  1  0
 18  8  2  0
 19  4  2  0
 19 12  1  0
 20  5  1  0
 21 20  1  1
 22 18  1  0
M  END
$$$$

     RDKit          3D

 19 21  0  0  0  0  0  0  0  0999 V2000
   -3.6320   -0.6370  -17.6220 N   0  0  0  0  0  0  0  0  0  0  0  0
   -5.0810   -2.3220  -16.5570 C   0  0  0  0  0  0  0  0  0  0  0  0
   -1.7560   -2.4310  -16.4990 N   0  0  0  0  0  0  0  0  0  0  0  0
   -7.2750   -3.2410  -15.6480 C   0  0  0  0  0  0  0  0  0  0  0  0
   -6.9970   -1.9990  -18.2240 C   0  0  2  0  0  0  0  0  0  0  0  0
   -7.4900   -0.9940  -18.9510 O   0  0  0  0  0  0  0  0  0  0  0  0
   -4.5710   -1.2190  -18.5420 C   0  0  0  0  0  0  0  0  0  0  0  0
   -2.2550   -0.3860  -17.3570 C   0  0  0  0  0  0  0  0  0  0  0  0
   -9.0150   -2.1520  -17.0420 C   0  0  0  0  0  0  0  0  0  0  0  0
   -7.8730   -4.1190  -15.1300 O   0  0  0  0  0  0  0  0  0  0  0  0
   -5.7600   -3.1970  -15.5830 C   0  0  0  0  0  0  0  0  0  0  0  0
   -3.8600   -1.6450  -16.6360 C   0  0  1  0  0  0  0  0  0  0  0  0
   -2.9930   -3.0220  -17.0800 C   0  0  0  0  0  0  0  0  0  0  0  0
   -1.3800   -1.3700  -17.6170 C   0  0  1  0  0  0  0  0  0  0  0  0
   -5.5610   -1.8190  -17.7890 C   0  0  0  0  0  0  0  0  0  0  0  0
   -0.2170   -0.9310  -17.1320 N   0  0  0  0  0  0  0  0  0  0  0  0
   -6.8570   -3.1120  -19.0700 O   0  0  0  0  0  0  0  0  0  0  0  0
   -7.7920   -2.3790  -17.0320 C   0  0  0  0  0  0  0  0  0  0  0  0
   -4.5030   -1.0800  -19.7520 O   0  0  0  0  0  0  0  0  0  0  0  0
  1  8  1  0
  1 12  1  0
  2 11  1  0
  4 11  1  0
  4 10  2  0
  5 15  1  0
  5 18  1  0
  5  6  1  6
  7 15  1  0
  7  1  1  0
  9 18  2  0
 12 13  1  6
 12  2  1  0
 13  3  1  0
 14  8  1  0
 14 16  1  1
 14  3  1  0
 15  2  2  0
 17  5  1  0
 18  4  1  0
 19  7  2  0
M  END
$$$$

     RDKit          3D

 21 22  0  0  0  0  0  0  0  0999 V2000
    2.0620   -1.2960  -16.1010 O   0  0  0  0  0  0  0  0  0  0  0  0
   -5.1650   -1.3980  -19.0370 C   0  0  0  0  0  0  0  0  0  0  0  0
    0.1340   -2.6770  -15.9720 N   0  0  0  0  0  0  0  0  0  0  0  0
   -8.7570   -3.2270  -17.7110 C   0  0  0  0  0  0  0  0  0  0  0  0
   -6.5920   -2.7680  -15.9770 C   0  0  0  0  0  0  0  0  0  0  0  0
   -1.9270   -2.2670  -16.9710 C   0  0  0  0  0  0  0  0  0  0  0  0
    1.2050   -1.8330  -16.5610 C   0  0  0  0  0  0  0  0  0  0  0  0
   -7.6390   -4.2680  -14.6310 O   0  0  0  0  0  0  0  0  0  0  0  0
   -0.8070   -3.0280  -17.0380 C   0  0  0  0  0  0  0  0  0  0  0  0
   -0.6250   -2.1300  -14.8140 C   0  0  0  0  0  0  0  0  0  0  0  0
   -8.7880   -3.5100  -16.4110 C   0  0  0  0  0  0  0  0  0  0  0  0
   -7.5050   -2.7340  -18.1410 C   0  0  0  0  0  0  0  0  0  0  0  0
   -7.6420   -3.4970  -15.5880 C   0  0  0  0  0  0  0  0  0  0  0  0
   -5.8320   -0.5300  -19.3260 C   0  0  0  0  0  0  0  0  0  0  0  0
   -1.7720   -1.8350  -15.5680 C   0  0  0  0  0  0  0  0  0  0  0  0
   -5.3370   -1.9500  -17.8120 C   0  0  0  0  0  0  0  0  0  0  0  0
   -6.4110   -2.3700  -17.2900 C   0  0  0  0  0  0  0  0  0  0  0  0
   -3.0610   -1.6120  -17.6170 O   0  0  0  0  0  0  0  0  0  0  0  0
   -4.5690   -0.5100  -20.3650 C   0  0  0  0  0  0  0  0  0  0  0  0
   -7.3770   -3.0020  -19.3640 O   0  0  0  0  0  0  0  0  0  0  0  0
   -4.3670   -1.8870  -17.0860 N   0  0  0  0  0  0  0  0  0  0  0  0
  2 16  1  0
  3 10  1  0
  4 11  1  0
  5 13  1  0
  6 15  2  0
  7  1  2  0
  7  3  1  0
  9  6  1  0
  9  3  1  0
 11 13  1  0
 12  4  1  0
 12 17  1  0
 13  8  2  0
 14  2  1  0
 15 10  1  0
 16 17  1  0
 16 21  2  3
 17  5  2  0
 18 21  1  0
 18  6  1  0
 19 14  1  0
 20 12  2  0
M  END
$$$$

     RDKit          3D

 20 21  0  0  0  0  0  0  0  0999 V2000
   -5.1320   -1.5990  -18.5160 C   0  0  0  0  0  0  0  0  0  0  0  0
   -3.6120   -2.5150  -14.9900 N   0  0  0  0  0  0  0  0  0  0  0  0
   -3.6920   -1.5570  -18.3460 C   0  0  0  0  0  0  0  0  0  0  0  0
   -5.7520   -2.5540  -16.3190 C   0  0  0  0  0  0  0  0  0  0  0  0
   -1.7800   -0.7370  -17.4260 C   0  0  0  0  0  0  0  0  0  0  0  0
   -2.3500   -1.8190  -17.7270 C   0  0  0  0  0  0  0  0  0  0  0  0
   -0.5320   -0.7590  -16.5980 C   0  0  0  0  0  0  0  0  0  0  0  0
   -1.9790   -2.9300  -17.2260 C   0  0  0  0  0  0  0  0  0  0  0  0
   -7.3540   -2.0320  -17.9070 C   0  0  0  0  0  0  0  0  0  0  0  0
    0.1860   -1.9300  -16.4570 C   0  0  0  0  0  0  0  0  0  0  0  0
   -5.3660   -1.0900  -19.6930 O   0  0  0  0  0  0  0  0  0  0  0  0
   -3.3790   -0.9140  -19.4910 C   0  0  0  0  0  0  0  0  0  0  0  0
   -8.2940   -2.7510  -17.0600 C   0  0  0  0  0  0  0  0  0  0  0  0
   -6.0810   -2.0650  -17.5700 C   0  0  0  0  0  0  0  0  0  0  0  0
   -6.6300   -3.2810  -15.5760 N   0  0  0  0  0  0  0  0  0  0  0  0
   -4.4600   -2.4930  -15.6310 C   0  0  0  0  0  0  0  0  0  0  0  0
   -8.5870   -4.3000  -15.3640 O   0  0  0  0  0  0  0  0  0  0  0  0
   -0.8310   -2.9500  -16.3850 C   0  0  0  0  0  0  0  0  0  0  0  0
   -2.5060   -0.4630  -20.3520 C   0  0  0  0  0  0  0  0  0  0  0  0
   -7.8410   -3.4240  -15.9690 C   0  0  0  0  0  0  0  0  0  0  0  0
  1  3  1  0
  1 14  2  3
  3 12  1  0
  3  6  1  0
  4 16  1  0
  4 15  2  0
  5  7  1  0
  6  5  2  0
  6  8  1  0
  7 10  1  0
  8 18  1  0
  9 14  1  0
  9 13  2  0
 10 18  1  0
 11  1  1  0
 13 20  1  0
 14  4  1  0
 16  2  3  0
 19 12  2  0
 20 15  1  0
 20 17  2  0
M  END
$$$$

     RDKit          3D

 21 23  0  0  0  0  0  0  0  0999 V2000
   -4.0040   -2.1330  -16.6500 C   0  0  0  0  0  0  0  0  0  0  0  0
   -0.8520   -0.0830  -17.1420 C   0  0  0  0  0  0  0  0  0  0  0  0
   -9.2390   -4.3120  -16.7770 O   0  0  0  0  0  0  0  0  0  0  0  0
   -3.2720   -0.5460  -18.5140 C   0  0  2  0  0  0  0  0  0  0  0  0
   -1.6900   -3.3440  -17.1570 C   0  0  0  0  0  0  0  0  0  0  0  0
   -7.7320   -2.3990  -18.2380 C   0  0  0  0  0  0  0  0  0  0  0  0
   -6.7540   -1.8120  -18.9920 C   0  0  0  0  0  0  0  0  0  0  0  0
   -2.4580   -0.5260  -19.7080 C   0  0  0  0  0  0  0  0  0  0  0  0
  -10.0850   -3.5900  -17.5380 C   0  0  0  0  0  0  0  0  0  0  0  0
   -7.3960   -2.8980  -16.9990 C   0  0  0  0  0  0  0  0  0  0  0  0
   -5.2900   -2.0020  -17.1580 C   0  0  0  0  0  0  0  0  0  0  0  0
   -5.5250   -1.5930  -18.4840 C   0  0  0  0  0  0  0  0  0  0  0  0
   -3.0510   -1.1960  -17.2640 C   0  0  2  0  0  0  0  0  0  0  0  0
   -4.5520   -0.9300  -19.0410 O   0  0  0  0  0  0  0  0  0  0  0  0
   -1.8600   -2.0510  -17.9920 C   0  0  1  0  0  0  0  0  0  0  0  0
   -0.7300   -1.1560  -18.0900 C   0  0  2  0  0  0  0  0  0  0  0  0
   -7.8360   -4.0760  -15.0880 O   0  0  0  0  0  0  0  0  0  0  0  0
   -6.2060   -2.6910  -16.4500 C   0  0  0  0  0  0  0  0  0  0  0  0
    0.5590   -1.7320  -17.8990 C   0  0  0  0  0  0  0  0  0  0  0  0
   -1.1190   -0.7980  -19.4960 C   0  0  0  0  0  0  0  0  0  0  0  0
   -8.2200   -3.7300  -16.1740 C   0  0  0  0  0  0  0  0  0  0  0  0
  3 21  1  0
  4  8  1  6
  4 13  1  0
  6 10  2  0
  7 12  2  0
  7  6  1  0
  8 20  1  0
  9  3  1  0
 10 18  1  0
 10 21  1  0
 11  1  1  0
 11 18  2  0
 12 11  1  0
 13  1  1  6
 14  4  1  0
 14 12  1  0
 15 13  1  0
 15  5  1  1
 16 15  1  0
 16 19  1  6
 16  2  1  0
 20 16  1  0
 21 17  2  0
M  END
$$$$

     RDKit          3D

 26 28  0  0  0  0  0  0  0  0999 V2000
   -1.6180   -1.1610  -19.1680 C   0  0  1  0  0  0  0  0  0  0  0  0
   -7.6290   -1.7540  -17.9690 C   0  0  0  0  0  0  0  0  0  0  0  0
   -2.4690   -4.3280  -15.8170 O   0  0  0  0  0  0  0  0  0  0  0  0
   -7.3440   -4.3970  -14.9310 O   0  0  0  0  0  0  0  0  0  0  0  0
   -3.0980   -1.1180  -19.0820 C   0  0  0  0  0  0  0  0  0  0  0  0
   -1.6920   -3.4420  -16.3250 C   0  0  0  0  0  0  0  0  0  0  0  0
   -8.4960   -2.9790  -16.1760 N   0  0  0  0  0  0  0  0  0  0  0  0
   -2.0830   -2.8770  -17.1650 C   0  0  2  0  0  0  0  0  0  0  0  0
   -4.4850    0.3440  -22.0400 N   0  0  0  0  0  0  0  0  0  0  0  0
   -6.2070   -3.0420  -16.4470 C   0  0  0  0  0  0  0  0  0  0  0  0
   -5.2550   -1.6480  -18.2920 C   0  0  0  0  0  0  0  0  0  0  0  0
   -0.9820   -2.0660  -17.9990 C   0  0  2  0  0  0  0  0  0  0  0  0
   -6.3180   -2.1510  -17.5330 C   0  0  0  0  0  0  0  0  0  0  0  0
   -1.4810   -1.9450  -20.6160 C   0  0  0  0  0  0  0  0  0  0  0  0
   -3.4690   -2.4670  -17.1570 O   0  0  0  0  0  0  0  0  0  0  0  0
   -9.9800   -1.3720  -17.3040 C   0  0  0  0  0  0  0  0  0  0  0  0
   -0.8480    0.0350  -19.4880 C   0  0  0  0  0  0  0  0  0  0  0  0
   -8.5920   -2.0790  -17.1430 C   0  0  0  0  0  0  0  0  0  0  0  0
   -4.0550   -0.6210  -19.8810 N   0  0  0  0  0  0  0  0  0  0  0  0
   -7.7590   -1.2220  -19.0550 O   0  0  0  0  0  0  0  0  0  0  0  0
   -5.3960   -0.9730  -19.3500 N   0  0  0  0  0  0  0  0  0  0  0  0
   -3.8890   -1.7490  -18.0490 C   0  0  0  0  0  0  0  0  0  0  0  0
   -7.3470   -3.5070  -15.7630 C   0  0  0  0  0  0  0  0  0  0  0  0
   -0.3110   -1.2410  -16.9720 C   0  0  0  0  0  0  0  0  0  0  0  0
   -4.1870   -0.0490  -21.0120 C   0  0  0  0  0  0  0  0  0  0  0  0
    0.0220   -3.1260  -18.5730 C   0  0  0  0  0  0  0  0  0  0  0  0
  1  5  1  0
  1 12  1  0
  2 13  1  0
  2 18  1  0
  5 22  2  0
  6  3  2  0
  7 23  1  0
  8 15  1  0
  8  6  1  1
  9 25  3  0
 10 23  1  0
 11 22  1  0
 11 13  1  0
 12  8  1  0
 12 24  1  1
 13 10  2  0
  1 14  1  6
 16 18  1  0
 17  1  1  0
 18  7  2  0
 19 21  1  0
 19  5  1  0
 20  2  2  0
 21 11  2  0
 22 15  1  0
 23  4  2  0
 25 19  1  0
 26 12  1  0
M  END
$$$$

     RDKit          3D

 19 19  0  0  0  0  0  0  0  0999 V2000
   -1.8130   -0.3550  -18.1620 C   0  0  1  0  0  0  0  0  0  0  0  0
   -0.6150   -0.3880  -17.1810 O   0  0  0  0  0  0  0  0  0  0  0  0
   -2.9910   -1.6310  -17.2420 C   0  0  0  0  0  0  0  0  0  0  0  0
   -5.8610   -3.2190  -15.8470 C   0  0  0  0  0  0  0  0  0  0  0  0
   -7.7740   -4.6220  -14.8210 O   0  0  0  0  0  0  0  0  0  0  0  0
   -7.1570   -1.1050  -18.3560 C   0  0  0  0  0  0  0  0  0  0  0  0
   -8.4240   -2.3370  -16.3080 O   0  0  0  0  0  0  0  0  0  0  0  0
   -0.6770   -0.5220  -20.2550 O   0  0  0  0  0  0  0  0  0  0  0  0
   -8.5080   -1.2590  -17.4780 C   0  0  0  0  0  0  0  0  0  0  0  0
   -1.9790   -0.2080  -19.6070 C   0  0  1  0  0  0  0  0  0  0  0  0
   -3.0000   -0.7530  -20.0580 C   0  0  0  0  0  0  0  0  0  0  0  0
   -4.6180   -1.3280  -18.5200 C   0  0  0  0  0  0  0  0  0  0  0  0
   -7.6360   -3.0920  -16.7340 C   0  0  2  0  0  0  0  0  0  0  0  0
   -7.0980   -3.7200  -15.3860 C   0  0  0  0  0  0  0  0  0  0  0  0
   -3.8670   -0.4660  -19.1510 O   0  0  0  0  0  0  0  0  0  0  0  0
   -5.3730   -2.0590  -17.7880 C   0  0  0  0  0  0  0  0  0  0  0  0
   -9.5260   -0.7290  -17.8450 O   0  0  0  0  0  0  0  0  0  0  0  0
   -2.2980   -1.5080  -18.3090 C   0  0  0  0  0  0  0  0  0  0  0  0
   -6.3210   -2.3880  -16.8400 C   0  0  2  0  0  0  0  0  0  0  0  0
  1  2  1  6
  4 14  1  0
  6  9  1  0
  9  7  1  0
 10  8  1  6
 10  1  1  0
 11 10  1  0
 11 15  1  0
 12 16  3  0
 13  7  1  1
 13 14  1  0
 14  5  2  0
 15 12  1  0
 17  9  2  0
 18  1  1  0
 18  3  1  0
 19 16  1  6
 19 13  1  0
 19  4  1  0
M  END
$$$$

     RDKit          3D

 16 15  0  0  0  0  0  0  0  0999 V2000
   -1.7540   -2.0530  -15.4710 O   0  0  0  0  0  0  0  0  0  0  0  0
   -1.7820    0.4250  -18.1810 C   0  0  0  0  0  0  0  0  0  0  0  0
   -1.3890    1.3340  -17.1220 C   0  0  0  0  0  0  0  0  0  0  0  0
   -2.0590   -3.0050  -16.2180 C   0  0  0  0  0  0  0  0  0  0  0  0
    0.6700    1.3440  -20.4770 O   0  0  0  0  0  0  0  0  0  0  0  0
   -0.1930    1.7240  -19.1410 C   0  0  1  0  0  0  0  0  0  0  0  0
   -1.1510   -3.2410  -17.4830 C   0  0  1  0  0  0  0  0  0  0  0  0
   -2.7780   -4.0530  -16.0770 O   0  0  0  0  0  0  0  0  0  0  0  0
   -0.0600   -1.6250  -18.6440 C   0  0  0  0  0  0  0  0  0  0  0  0
    0.7290   -0.4190  -18.7390 C   0  0  0  0  0  0  0  0  0  0  0  0
   -1.0480   -4.2530  -18.2930 O   0  0  0  0  0  0  0  0  0  0  0  0
   -0.5650    3.0020  -19.0120 C   0  0  0  0  0  0  0  0  0  0  0  0
   -1.3060    0.6280  -19.5740 C   0  0  0  0  0  0  0  0  0  0  0  0
   -0.9140   -1.9600  -18.1340 C   0  0  0  0  0  0  0  0  0  0  0  0
   -1.4070   -0.1060  -20.3080 O   0  0  0  0  0  0  0  0  0  0  0  0
    0.7120    0.9600  -18.3700 O   0  0  0  0  0  0  0  0  0  0  0  0
  2  3  1  0
  4  8  2  0
  4  1  1  0
  5  6  1  0
  6 12  1  1
  6 16  1  0
  7 11  1  6
  7  4  1  0
  9 14  1  0
 10  9  2  3
 10 16  1  0
 13  6  1  0
 13  2  1  0
 14  7  1  0
 15 13  2  0
M  END
$$$$

     RDKit          3D

 21 21  0  0  0  0  0  0  0  0999 V2000
   -0.8220   -3.3930  -17.4530 O   0  0  0  0  0  0  0  0  0  0  0  0
   -5.7880   -1.5610  -18.2220 C   0  0  0  0  0  0  0  0  0  0  0  0
   -8.9930   -4.1350  -16.5400 O   0  0  0  0  0  0  0  0  0  0  0  0
   -4.5680   -3.3920  -16.7980 C   0  0  0  0  0  0  0  0  0  0  0  0
   -2.4780   -0.8560  -19.1260 C   0  0  1  0  0  0  0  0  0  0  0  0
   -1.7130    1.5990  -19.2870 O   0  0  0  0  0  0  0  0  0  0  0  0
   -1.8760   -2.5260  -15.5320 O   0  0  0  0  0  0  0  0  0  0  0  0
   -7.3680   -3.3190  -15.1540 O   0  0  0  0  0  0  0  0  0  0  0  0
   -6.6410   -1.5030  -17.1700 C   0  0  0  0  0  0  0  0  0  0  0  0
   -8.1830   -3.2740  -16.0800 C   0  0  0  0  0  0  0  0  0  0  0  0
   -1.0230    0.5470  -17.4930 O   0  0  0  0  0  0  0  0  0  0  0  0
   -8.1370   -2.2790  -17.5060 C   0  0  2  0  0  0  0  0  0  0  0  0
   -2.1490   -2.7820  -16.9690 C   0  0  1  0  0  0  0  0  0  0  0  0
   -8.1460   -3.3390  -18.5750 O   0  0  0  0  0  0  0  0  0  0  0  0
   -1.7480    0.3510  -18.5150 C   0  0  0  0  0  0  0  0  0  0  0  0
   -8.6160   -1.1380  -18.2840 C   0  0  0  0  0  0  0  0  0  0  0  0
   -3.5760   -0.4550  -19.8530 C   0  0  0  0  0  0  0  0  0  0  0  0
   -1.3980   -1.3550  -19.9480 C   0  0  0  0  0  0  0  0  0  0  0  0
   -2.8770   -1.7310  -17.8000 C   0  0  2  0  0  0  0  0  0  0  0  0
   -4.3290   -1.7830  -17.2670 C   0  0  1  0  0  0  0  0  0  0  0  0
   -3.1790   -4.0050  -16.9540 C   0  0  0  0  0  0  0  0  0  0  0  0
 13  1  1  6
  2  9  1  0
  3 10  2  0
  5 15  1  0
  6 15  2  0
 10  8  1  0
 12 16  1  6
 12  9  1  0
 12 10  1  0
 13 21  1  0
 13  7  1  0
 14 12  1  0
 15 11  1  0
  5 17  1  6
 18  5  1  0
 19  5  1  6
 19 20  1  0
 19 13  1  0
 20  2  1  6
 20  4  1  0
 21  4  1  0
M  END
$$$$

     RDKit          3D

 21 22  0  0  0  0  0  0  0  0999 V2000
   -1.8660   -0.9410  -19.4980 C   0  0  2  0  0  0  0  0  0  0  0  0
   -5.2620   -1.9280  -17.9430 C   0  0  0  0  0  0  0  0  0  0  0  0
   -2.1980    0.2140  -18.4410 C   0  0  0  0  0  0  0  0  0  0  0  0
   -7.3120   -1.3710  -18.9420 C   0  0  0  0  0  0  0  0  0  0  0  0
   -7.9510   -2.1600  -17.8970 C   0  0  0  0  0  0  0  0  0  0  0  0
    0.0330   -1.9820  -21.0180 O   0  0  0  0  0  0  0  0  0  0  0  0
   -3.8040   -3.6500  -15.9660 N   0  0  0  0  0  0  0  0  0  0  0  0
   -2.8990   -0.4620  -17.2220 C   0  0  0  0  0  0  0  0  0  0  0  0
   -8.1570   -3.4440  -15.6020 C   0  0  1  0  0  0  0  0  0  0  0  0
   -9.0190   -4.4020  -16.2980 O   0  0  0  0  0  0  0  0  0  0  0  0
   -5.9940   -1.3560  -18.8300 C   0  0  0  0  0  0  0  0  0  0  0  0
   -2.0420   -2.2520  -18.7050 N   0  0  0  0  0  0  0  0  0  0  0  0
   -7.3550   -4.3000  -14.9370 O   0  0  0  0  0  0  0  0  0  0  0  0
   -2.6970   -1.9040  -17.4260 C   0  0  1  0  0  0  0  0  0  0  0  0
   -4.7440   -3.0760  -16.5910 C   0  0  0  0  0  0  0  0  0  0  0  0
   -7.2900   -2.7870  -16.8580 C   0  0  0  0  0  0  0  0  0  0  0  0
   -4.9920   -0.5250  -20.1620 Cl  0  0  0  0  0  0  0  0  0  0  0  0
   -0.7860   -2.9950  -18.4540 C   0  0  0  0  0  0  0  0  0  0  0  0
   -5.9050   -2.7890  -16.9280 C   0  0  0  0  0  0  0  0  0  0  0  0
   -2.5990   -2.6950  -16.1980 C   0  0  0  0  0  0  0  0  0  0  0  0
   -0.5290   -0.8400  -20.2690 C   0  0  0  0  0  0  0  0  0  0  0  0
  1 21  1  1
  1 12  1  0
  1  3  1  0
  2 19  2  0
  3  8  1  0
  4 11  2  0
  4  5  1  0
  5 16  2  0
  6 21  1  0
  9 13  1  1
 10  9  1  0
 11  2  1  0
 12 18  1  0
 12 14  1  0
 14  8  1  0
 14 20  1  1
 15  7  1  0
 16  9  1  0
 17 11  1  0
 19 16  1  0
 19 15  1  0
 20  7  1  0
M  END
$$$$

     RDKit          3D

 22 25  0  0  0  0  0  0  0  0999 V2000
   -2.4620   -0.8240  -19.7040 C   0  0  0  0  0  0  0  0  0  0  0  0
   -2.8880   -2.2150  -15.7900 O   0  0  0  0  0  0  0  0  0  0  0  0
   -3.8530   -1.1450  -19.0690 C   0  0  1  0  0  0  0  0  0  0  0  0
   -1.6290   -2.0730  -19.3810 C   0  0  1  0  0  0  0  0  0  0  0  0
   -0.1660   -1.8970  -19.6470 C   0  0  0  0  0  0  0  0  0  0  0  0
   -2.8620   -1.9920  -16.9720 C   0  0  0  0  0  0  0  0  0  0  0  0
   -3.9110   -1.1990  -17.5730 C   0  0  2  0  0  0  0  0  0  0  0  0
   -9.4350   -3.1130  -17.0920 C   0  0  0  0  0  0  0  0  0  0  0  0
   -7.2050   -3.5840  -15.4500 N   0  0  0  0  0  0  0  0  0  0  0  0
  -10.4960   -2.7820  -17.6790 O   0  0  0  0  0  0  0  0  0  0  0  0
   -6.2140   -1.8870  -16.9580 C   0  0  0  0  0  0  0  0  0  0  0  0
   -9.3040   -4.1500  -16.2420 N   0  0  0  0  0  0  0  0  0  0  0  0
   -8.2720   -4.3210  -15.4610 C   0  0  0  0  0  0  0  0  0  0  0  0
   -0.5050   -2.7450  -17.4760 C   0  0  0  0  0  0  0  0  0  0  0  0
    0.4270   -1.7560  -18.1770 C   0  0  0  0  0  0  0  0  0  0  0  0
   -8.0590   -1.2220  -17.9540 N   0  0  0  0  0  0  0  0  0  0  0  0
   -6.7580   -0.9360  -17.7790 N   0  0  0  0  0  0  0  0  0  0  0  0
   -1.8750   -2.3510  -17.8730 C   0  0  2  0  0  0  0  0  0  0  0  0
   -5.0000   -2.1380  -16.8850 N   0  0  0  0  0  0  0  0  0  0  0  0
   -4.5630   -0.1310  -20.0690 C   0  0  0  0  0  0  0  0  0  0  0  0
   -8.3240   -2.3150  -17.2500 C   0  0  0  0  0  0  0  0  0  0  0  0
   -7.2090   -2.6900  -16.4070 C   0  0  0  0  0  0  0  0  0  0  0  0
  1  3  1  0
  3 20  1  1
  3  7  1  0
  4  1  1  1
  4 18  1  0
  5  4  1  0
  5 15  1  0
  6  2  2  0
  7  6  1  0
  7 19  1  6
  8 12  1  0
 10  8  2  0
 11 19  1  0
 11 22  1  0
 12 13  2  0
 13  9  1  0
 15 14  1  0
 16 17  1  0
 16 21  2  0
 17 11  2  0
 18 14  1  1
 18  6  1  0
 21  8  1  0
 21 22  1  0
 22  9  2  0
M  END
$$$$

     RDKit          3D

 19 20  0  0  0  0  0  0  0  0999 V2000
    0.2460   -1.6030  -17.1050 O   0  0  0  0  0  0  0  0  0  0  0  0
   -7.3140   -3.8830  -14.8380 O   0  0  0  0  0  0  0  0  0  0  0  0
   -1.8790   -0.9460  -17.7320 C   0  0  1  0  0  0  0  0  0  0  0  0
   -8.3770   -2.5240  -18.0900 C   0  0  2  0  0  0  0  0  0  0  0  0
   -7.1590   -1.6170  -19.8920 O   0  0  0  0  0  0  0  0  0  0  0  0
   -7.2010   -3.2800  -15.8980 C   0  0  0  0  0  0  0  0  0  0  0  0
   -0.8170    0.2890  -16.1920 O   0  0  0  0  0  0  0  0  0  0  0  0
   -8.4760   -2.7370  -16.5600 C   0  0  2  0  0  0  0  0  0  0  0  0
   -5.8000   -2.8280  -16.2630 C   0  0  0  0  0  0  0  0  0  0  0  0
   -5.8390   -2.6410  -17.8940 C   0  0  1  0  0  0  0  0  0  0  0  0
   -0.7360   -0.8030  -16.8320 C   0  0  0  0  0  0  0  0  0  0  0  0
   -9.4170   -3.7700  -16.3230 O   0  0  0  0  0  0  0  0  0  0  0  0
   -7.0890   -1.7710  -18.4360 C   0  0  2  0  0  0  0  0  0  0  0  0
   -3.1100   -0.2520  -18.0500 C   0  0  1  0  0  0  0  0  0  0  0  0
   -2.8640   -0.5820  -19.5560 C   0  0  0  0  0  0  0  0  0  0  0  0
   -4.2710   -0.8810  -17.4120 C   0  0  0  0  0  0  0  0  0  0  0  0
   -4.6140   -1.9860  -18.2130 O   0  0  0  0  0  0  0  0  0  0  0  0
   -9.4120   -1.4710  -18.2270 O   0  0  0  0  0  0  0  0  0  0  0  0
   -1.3980   -0.7300  -19.2190 N   0  0  0  0  0  0  0  0  0  0  0  0
  1 11  2  0
  3 11  1  1
  4 18  1  1
  4  8  1  0
  6  2  2  0
  8 12  1  6
  8  6  1  0
  9  6  1  0
 10 17  1  1
 10  9  1  0
 11  7  1  0
 13  5  1  6
 13  4  1  0
 13 10  1  0
 14  3  1  0
 14 16  1  1
 15 19  1  0
 15 14  1  0
 17 16  1  0
 19  3  1  0
M  END
$$$$

     RDKit          3D

 20 20  0  0  0  0  0  0  0  0999 V2000
   -3.1650   -1.3430  -19.5260 C   0  0  0  0  0  0  0  0  0  0  0  0
    0.2380   -1.0210  -17.8000 S   0  0  1  0  0  0  0  0  0  0  0  0
   -7.6350   -3.5070  -15.6990 C   0  0  0  0  0  0  0  0  0  0  0  0
   -6.8420   -1.9660  -18.3800 C   0  0  0  0  0  0  0  0  0  0  0  0
   -1.6850   -1.1190  -19.7490 C   0  0  0  0  0  0  0  0  0  0  0  0
   -9.6380   -1.4190  -17.2620 C   0  0  0  0  0  0  0  0  0  0  0  0
    1.0910   -0.5280  -18.9510 O   0  0  0  0  0  0  0  0  0  0  0  0
   -3.4640   -1.4660  -18.0570 C   0  0  2  0  0  0  0  0  0  0  0  0
   -0.1900    0.0520  -17.0460 O   0  0  0  0  0  0  0  0  0  0  0  0
   -2.1390   -1.4480  -17.4380 C   0  0  0  0  0  0  0  0  0  0  0  0
   -4.1350   -2.9510  -16.2830 C   0  0  0  0  0  0  0  0  0  0  0  0
   -1.0930   -1.5480  -18.4130 C   0  0  2  0  0  0  0  0  0  0  0  0
   -0.9010   -3.0720  -18.5890 C   0  0  0  0  0  0  0  0  0  0  0  0
   -8.2540   -4.3590  -15.2950 O   0  0  0  0  0  0  0  0  0  0  0  0
   -8.7440   -2.6120  -17.5760 C   0  0  0  0  0  0  0  0  0  0  0  0
   -4.4350   -2.3160  -17.6120 C   0  0  1  0  0  0  0  0  0  0  0  0
   -5.5680   -1.3500  -17.8360 C   0  0  0  0  0  0  0  0  0  0  0  0
   -7.0530   -2.6710  -16.0340 N   0  0  0  0  0  0  0  0  0  0  0  0
    1.1330   -1.7360  -16.9940 O   0  0  0  0  0  0  0  0  0  0  0  0
   -7.6780   -2.5340  -17.2460 C   0  0  2  0  0  0  0  0  0  0  0  0
  8  1  1  6
  2  9  1  1
  2 19  1  0
  3 14  2  0
  4 17  1  0
  5  1  1  0
  5 12  1  0
  7  2  1  0
  8 16  1  0
  8 10  1  0
 12 13  1  6
 12  2  1  0
 12 10  1  0
 15  6  1  0
 20 15  1  1
 16 11  1  1
 17 16  1  0
 18  3  2  0
 20  4  1  0
 20 18  1  0
M  END
$$$$

     RDKit          3D

 16 17  0  0  0  0  0  0  0  0999 V2000
   -0.5940   -2.3370  -20.0040 C   0  0  0  0  0  0  0  0  0  0  0  0
   -2.2000   -1.7000  -17.6630 C   0  0  1  0  0  0  0  0  0  0  0  0
   -5.4410   -1.7800  -17.8370 C   0  0  0  0  0  0  0  0  0  0  0  0
   -7.4860   -2.5990  -16.7640 N   0  0  0  0  0  0  0  0  0  0  0  0
   -1.6070   -3.0430  -17.8430 C   0  0  0  0  0  0  0  0  0  0  0  0
   -7.2460   -3.7870  -14.8480 O   0  0  0  0  0  0  0  0  0  0  0  0
   -7.6740   -1.5000  -18.6640 O   0  0  0  0  0  0  0  0  0  0  0  0
   -4.9120   -1.2970  -19.0600 C   0  0  0  0  0  0  0  0  0  0  0  0
   -1.0090   -0.8840  -19.7770 C   0  0  0  0  0  0  0  0  0  0  0  0
   -6.9450   -1.8980  -17.7830 C   0  0  0  0  0  0  0  0  0  0  0  0
   -2.2550   -0.8760  -18.9390 C   0  0  0  0  0  0  0  0  0  0  0  0
   -5.2920   -2.8810  -15.7250 C   0  0  0  0  0  0  0  0  0  0  0  0
   -6.7500   -3.0820  -15.7610 C   0  0  0  0  0  0  0  0  0  0  0  0
   -3.2720   -1.8980  -16.6940 N   0  0  0  0  0  0  0  0  0  0  0  0
   -0.3650   -2.9930  -18.6740 C   0  0  0  0  0  0  0  0  0  0  0  0
   -4.6860   -2.1920  -16.7630 C   0  0  0  0  0  0  0  0  0  0  0  0
  1  9  1  0
  1 15  1  0
  2 14  1  6
  3 10  1  0
  3 16  2  0
  4 13  1  0
  5  2  1  0
  7 10  2  0
  8  3  1  0
  9 11  1  0
 10  4  1  0
 11  2  1  0
 13 12  1  0
 13  6  2  0
 15  5  1  0
 16 14  1  0
 16 12  1  0
M  END
$$$$

     RDKit          3D

 23 25  0  0  0  0  0  0  0  0999 V2000
   -1.5400   -0.2050  -20.0100 C   0  0  0  0  0  0  0  0  0  0  0  0
   -7.2770   -2.0790  -16.7530 C   0  0  2  0  0  0  0  0  0  0  0  0
   -4.0770   -0.9030  -17.7030 C   0  0  0  0  0  0  0  0  0  0  0  0
   -6.1990   -1.5570  -17.6920 C   0  0  0  0  0  0  0  0  0  0  0  0
   -6.8090   -0.6360  -20.5200 O   0  0  0  0  0  0  0  0  0  0  0  0
   -6.7250   -2.7750  -19.5900 N   0  0  0  0  0  0  0  0  0  0  0  0
   -4.5790   -1.0690  -19.2180 C   0  0  0  0  0  0  0  0  0  0  0  0
   -6.9460   -3.0270  -15.7140 C   0  0  0  0  0  0  0  0  0  0  0  0
   -4.1300   -1.1460  -18.8230 N   0  0  0  0  0  0  0  0  0  0  0  0
   -2.9700   -0.7360  -16.7670 C   0  0  0  0  0  0  0  0  0  0  0  0
   -0.5010   -0.9200  -19.9600 N   0  0  0  0  0  0  0  0  0  0  0  0
   -1.3760   -2.9560  -18.6850 C   0  0  0  0  0  0  0  0  0  0  0  0
   -0.1960   -0.8010  -17.3460 C   0  0  1  0  0  0  0  0  0  0  0  0
   -8.1790   -3.9060  -15.5220 C   0  0  0  0  0  0  0  0  0  0  0  0
   -5.1390   -1.2900  -17.2780 N   0  0  0  0  0  0  0  0  0  0  0  0
   -8.4340   -1.7070  -17.1690 C   0  0  0  0  0  0  0  0  0  0  0  0
   -8.8150   -4.0790  -16.7800 N   0  0  0  0  0  0  0  0  0  0  0  0
   -9.4210   -2.8500  -17.3670 C   0  0  0  0  0  0  0  0  0  0  0  0
   -6.2640   -1.4430  -19.3030 C   0  0  2  0  0  0  0  0  0  0  0  0
   -2.1500   -1.4370  -18.9630 C   0  0  1  0  0  0  0  0  0  0  0  0
    0.8880   -0.2610  -17.0830 O   0  0  0  0  0  0  0  0  0  0  0  0
   -1.6100   -0.8180  -17.4270 C   0  0  1  0  0  0  0  0  0  0  0  0
    0.2630   -0.5930  -18.7890 C   0  0  0  0  0  0  0  0  0  0  0  0
  1 11  1  0
  1 20  1  0
  2  8  1  0
  3 15  1  0
  3 10  1  0
  4 15  2  0
  2  4  1  6
 19  6  1  6
  7  9  1  0
  8 14  1  0
  9  3  2  0
 11 23  1  0
 13 21  1  1
 16  2  1  0
 17 14  1  0
 18 16  1  0
 18 17  1  0
 19  5  1  0
 19  7  1  0
 19  4  1  0
 20 12  1  6
 20 22  1  0
 22 13  1  0
 22 10  1  1
 23 13  1  0
M  END
$$$$

     RDKit          3D

 20 22  0  0  0  0  0  0  0  0999 V2000
   -5.5850   -1.9320  -17.2470 C   0  0  0  0  0  0  0  0  0  0  0  0
  -10.2360   -1.1610  -17.4080 O   0  0  0  0  0  0  0  0  0  0  0  0
   -4.6770   -2.0250  -16.2330 C   0  0  0  0  0  0  0  0  0  0  0  0
   -3.5750   -1.5060  -16.5150 C   0  0  0  0  0  0  0  0  0  0  0  0
   -4.7610   -2.6030  -15.0370 O   0  0  0  0  0  0  0  0  0  0  0  0
   -8.8410   -2.4070  -15.9990 N   0  0  0  0  0  0  0  0  0  0  0  0
   -2.0270   -3.0740  -17.3470 C   0  0  1  0  0  0  0  0  0  0  0  0
   -1.0200   -2.6010  -16.4350 O   0  0  0  0  0  0  0  0  0  0  0  0
   -6.9890   -1.9560  -17.0860 C   0  0  0  0  0  0  0  0  0  0  0  0
   -6.5790   -2.1660  -19.9340 O   0  0  0  0  0  0  0  0  0  0  0  0
   -8.0200   -1.1900  -17.7050 C   0  0  0  0  0  0  0  0  0  0  0  0
   -5.0180   -0.7550  -20.5710 O   0  0  0  0  0  0  0  0  0  0  0  0
   -3.7080   -1.6960  -18.6130 C   0  0  0  0  0  0  0  0  0  0  0  0
   -2.0690   -3.3340  -15.8830 C   0  0  0  0  0  0  0  0  0  0  0  0
   -7.6080   -2.6880  -16.0130 C   0  0  0  0  0  0  0  0  0  0  0  0
   -5.0140   -1.7090  -18.4970 C   0  0  0  0  0  0  0  0  0  0  0  0
   -7.1230   -3.5310  -15.2040 O   0  0  0  0  0  0  0  0  0  0  0  0
   -9.1580   -1.5270  -17.0600 C   0  0  0  0  0  0  0  0  0  0  0  0
   -3.0520   -2.0600  -17.4070 C   0  0  1  0  0  0  0  0  0  0  0  0
   -5.5680   -1.5070  -19.6570 N   0  0  0  0  0  0  0  0  0  0  0  0
  1  9  1  0
  1  3  1  0
  2 18  2  0
  3  5  1  0
  4  3  1  0
  7  8  1  0
  7 14  1  1
  8 14  1  0
  9 15  1  0
 10 20  1  0
 11  9  2  0
 11 18  1  0
 12 20  2  0
 13 16  1  0
 15  6  1  0
 15 17  2  0
 16  1  2  0
 18  6  1  0
 19 13  1  1
 19  7  1  0
 19  4  1  0
 20 16  1  0
M  CHG  2  10  -1  20   1
M  END
$$$$

     RDKit          3D

 21 24  0  0  0  0  0  0  0  0999 V2000
   -3.6890   -2.5430  -16.4250 C   0  0  0  0  0  0  0  0  0  0  0  0
   -2.4280   -2.5570  -15.6800 C   0  0  0  0  0  0  0  0  0  0  0  0
   -9.4240   -0.8390  -17.5750 C   0  0  0  0  0  0  0  0  0  0  0  0
   -7.1250   -0.7480  -19.8910 O   0  0  0  0  0  0  0  0  0  0  0  0
   -9.0090   -3.9160  -16.7250 O   0  0  0  0  0  0  0  0  0  0  0  0
   -7.4310   -4.0050  -14.9400 O   0  0  0  0  0  0  0  0  0  0  0  0
   -7.2030   -1.5330  -18.8810 C   0  0  1  0  0  0  0  0  0  0  0  0
   -2.2760   -1.3990  -17.6260 C   0  0  2  0  0  0  0  0  0  0  0  0
   -4.2770   -1.4280  -18.4180 C   0  0  0  0  0  0  0  0  0  0  0  0
   -0.5880   -1.8620  -20.1840 C   0  0  0  0  0  0  0  0  0  0  0  0
   -5.8770   -1.3710  -18.0320 C   0  0  2  0  0  0  0  0  0  0  0  0
   -7.2000   -2.3080  -16.5000 C   0  0  2  0  0  0  0  0  0  0  0  0
   -1.6220   -1.7170  -16.3880 N   0  0  0  0  0  0  0  0  0  0  0  0
   -3.4230   -1.7680  -17.5340 N   0  0  0  0  0  0  0  0  0  0  0  0
   -0.2120   -1.6570  -18.7620 C   0  0  0  0  0  0  0  0  0  0  0  0
   -6.4720   -3.0280  -17.3070 O   0  0  0  0  0  0  0  0  0  0  0  0
   -2.1550   -0.4720  -20.0560 C   0  0  0  0  0  0  0  0  0  0  0  0
   -1.5150   -0.9330  -18.8450 C   0  0  2  0  0  0  0  0  0  0  0  0
   -6.0240   -2.2360  -16.8170 C   0  0  1  0  0  0  0  0  0  0  0  0
   -8.0850   -3.5450  -15.9530 C   0  0  0  0  0  0  0  0  0  0  0  0
   -7.8230   -1.0830  -17.5740 C   0  0  2  0  0  0  0  0  0  0  0  0
  1  2  1  0
  5 20  2  0
  7  4  1  6
  7 11  1  0
  7 21  1  0
  8 18  1  0
  8 14  1  0
  8 13  1  6
  9 14  1  0
 10 18  1  0
 10 15  1  0
 11  9  1  6
 11 19  1  0
 12 20  1  1
 13  2  1  0
 14  1  1  0
 16 12  1  0
 18 17  1  6
 18 15  1  0
 19 16  1  6
 19 12  1  0
 20  6  1  0
 21  3  1  6
 21 12  1  0
M  END
$$$$

     RDKit          3D

 21 22  0  0  0  0  0  0  0  0999 V2000
   -3.5220   -0.8660  -19.1790 O   0  0  0  0  0  0  0  0  0  0  0  0
    0.4810   -2.9300  -16.1640 O   0  0  0  0  0  0  0  0  0  0  0  0
   -9.6040   -4.4730  -16.6740 F   0  0  0  0  0  0  0  0  0  0  0  0
   -1.5440   -2.5920  -18.3820 C   0  0  0  0  0  0  0  0  0  0  0  0
   -2.2600   -1.9080  -17.3570 C   0  0  1  0  0  0  0  0  0  0  0  0
   -3.4790   -2.4510  -16.9450 C   0  0  2  0  0  0  0  0  0  0  0  0
   -1.3130   -1.4600  -16.5250 O   0  0  0  0  0  0  0  0  0  0  0  0
   -1.2590   -3.1800  -14.4320 O   0  0  0  0  0  0  0  0  0  0  0  0
   -5.8200   -1.9410  -17.1580 N   0  0  0  0  0  0  0  0  0  0  0  0
    0.0400   -1.3060  -14.3430 O   0  0  0  0  0  0  0  0  0  0  0  0
   -7.1300   -3.5410  -15.2860 O   0  0  0  0  0  0  0  0  0  0  0  0
   -7.8350   -3.0070  -16.3100 C   0  0  1  0  0  0  0  0  0  0  0  0
   -9.8690   -2.1800  -17.2310 C   0  0  0  0  0  0  0  0  0  0  0  0
   -7.1230   -2.1170  -17.1250 C   0  0  0  0  0  0  0  0  0  0  0  0
   -3.6540   -1.3940  -17.7610 C   0  0  2  0  0  0  0  0  0  0  0  0
   -9.2050   -1.0380  -17.7770 C   0  0  0  0  0  0  0  0  0  0  0  0
   -8.9900   -3.1910  -16.9060 C   0  0  2  0  0  0  0  0  0  0  0  0
   -0.5570   -2.2340  -15.3110 P   0  0  1  0  0  0  0  0  0  0  0  0
   -4.0450   -2.5880  -15.8590 C   0  0  0  0  0  0  0  0  0  0  0  0
   -5.0180   -2.1490  -16.2790 C   0  0  0  0  0  0  0  0  0  0  0  0
   -7.9640   -1.1780  -17.9000 C   0  0  0  0  0  0  0  0  0  0  0  0
  2 18  2  0
  5  4  1  6
  5  6  1  0
  5  7  1  0
  6 19  1  1
  7 18  1  0
  9 14  1  0
  9 20  1  0
 12 11  1  6
 13 17  1  0
 14 12  1  0
 15  1  1  6
 15  5  1  0
 15  6  1  0
 16 13  1  0
 17  3  1  1
 17 12  1  0
 18  8  1  1
 18 10  1  0
 20 19  1  0
 21 16  1  0
 21 14  2  0
M  END
$$$$

     RDKit          3D

 23 24  0  0  0  0  0  0  0  0999 V2000
    0.4080   -1.0400  -20.2170 C   0  0  0  0  0  0  0  0  0  0  0  0
   -6.5990   -1.8210  -18.5130 C   0  0  0  0  0  0  0  0  0  0  0  0
   -1.4460   -2.3040  -19.8160 O   0  0  0  0  0  0  0  0  0  0  0  0
   -4.1130   -0.4950  -19.1550 O   0  0  0  0  0  0  0  0  0  0  0  0
   -3.0630   -1.7630  -17.4230 C   0  0  0  0  0  0  0  0  0  0  0  0
    0.7590   -1.9970  -21.0210 N   0  0  0  0  0  0  0  0  0  0  0  0
    0.5210   -1.6700  -17.3670 O   0  0  0  0  0  0  0  0  0  0  0  0
   -7.7470   -2.0640  -18.1680 C   0  0  0  0  0  0  0  0  0  0  0  0
   -8.1830   -2.5150  -16.8480 C   0  0  0  0  0  0  0  0  0  0  0  0
   -5.4210   -1.9060  -17.8690 N   0  0  0  0  0  0  0  0  0  0  0  0
   -5.9580   -3.2680  -15.8100 C   0  0  0  0  0  0  0  0  0  0  0  0
   -5.1190   -2.7790  -16.8330 C   0  0  1  0  0  0  0  0  0  0  0  0
   -7.4700   -3.2820  -15.9720 C   0  0  1  0  0  0  0  0  0  0  0  0
   -1.9220   -1.3440  -17.0250 C   0  0  0  0  0  0  0  0  0  0  0  0
   -4.1620   -1.3080  -18.1760 C   0  0  0  0  0  0  0  0  0  0  0  0
   -0.6430   -0.9450  -17.9290 C   0  0  2  0  0  0  0  0  0  0  0  0
    0.8250    0.1860  -20.1380 O   0  0  0  0  0  0  0  0  0  0  0  0
   -6.5270   -1.1750  -19.6920 O   0  0  0  0  0  0  0  0  0  0  0  0
   -9.3570   -2.2350  -16.6410 O   0  0  0  0  0  0  0  0  0  0  0  0
   -7.9330   -4.1810  -14.9680 O   0  0  0  0  0  0  0  0  0  0  0  0
   -2.1550   -3.9100  -16.5540 C   0  0  0  0  0  0  0  0  0  0  0  0
   -3.7280   -3.3040  -16.9960 S   0  0  2  0  0  0  0  0  0  0  0  0
   -0.6600   -1.4430  -19.3780 C   0  0  0  0  0  0  0  0  0  0  0  0
  1 17  2  0
  1 23  1  0
  2  8  1  0
  2 10  1  0
  3 23  2  0
  4 15  2  0
  5 14  1  0
  5 22  1  0
  6  1  1  0
  8  9  1  0
  9 19  2  0
  9 13  1  0
 10 12  1  0
 12 11  1  6
 13 11  1  0
 13 20  1  1
 15 10  1  0
 15  5  1  0
 16  7  1  1
 16 14  1  0
 18  2  2  0
 22 12  1  0
 22 21  1  0
 23 16  1  0
M  END
$$$$

     RDKit          3D

 21 25  0  0  0  0  0  0  0  0999 V2000
   -1.5690   -1.5550  -19.3030 C   0  0  0  0  0  0  0  0  0  0  0  0
   -4.6450   -2.8100  -16.0730 C   0  0  1  0  0  0  0  0  0  0  0  0
   -4.3690   -1.6690  -18.2960 N   0  0  0  0  0  0  0  0  0  0  0  0
   -5.6150   -0.8910  -17.3900 C   0  0  1  0  0  0  0  0  0  0  0  0
   -2.0480   -1.5100  -17.8010 N   0  0  0  0  0  0  0  0  0  0  0  0
   -8.3650   -3.9810  -15.8720 C   0  0  0  0  0  0  0  0  0  0  0  0
   -6.4870   -0.7610  -20.2730 O   0  0  0  0  0  0  0  0  0  0  0  0
   -6.6320   -2.0300  -17.4540 C   0  0  1  0  0  0  0  0  0  0  0  0
   -7.3720   -3.3950  -19.3700 O   0  0  0  0  0  0  0  0  0  0  0  0
   -4.4370   -2.4720  -14.5040 C   0  0  0  0  0  0  0  0  0  0  0  0
   -9.0160   -3.1710  -17.0740 C   0  0  0  0  0  0  0  0  0  0  0  0
   -7.5240   -1.1310  -19.5560 O   0  0  0  0  0  0  0  0  0  0  0  0
   -3.3030   -0.8120  -18.3660 C   0  0  1  0  0  0  0  0  0  0  0  0
   -3.7840   -3.8510  -16.3470 C   0  0  0  0  0  0  0  0  0  0  0  0
   -7.0860   -3.3780  -15.4160 C   0  0  0  0  0  0  0  0  0  0  0  0
   -3.1000   -2.6980  -14.2300 O   0  0  0  0  0  0  0  0  0  0  0  0
   -7.4530   -2.1450  -18.6330 C   0  0  2  0  0  0  0  0  0  0  0  0
   -6.1060   -3.2010  -16.4910 N   0  0  0  0  0  0  0  0  0  0  0  0
   -7.9920   -2.0900  -17.3890 C   0  0  2  0  0  0  0  0  0  0  0  0
   -2.9300   -0.9750  -19.8190 C   0  0  0  0  0  0  0  0  0  0  0  0
   -4.3910   -1.4440  -16.8710 C   0  0  1  0  0  0  0  0  0  0  0  0
  1  5  1  0
  2 14  1  6
  2 10  1  0
 13  3  1  6
  4  3  1  6
 21  3  1  6
  4 21  1  0
  6 15  1  0
  7 12  1  0
  8  4  1  0
  8 19  1  0
  8 18  1  1
 17  9  1  6
 10 16  1  0
 11  6  1  0
 12 17  1  0
 13  5  1  0
 17  8  1  0
 17 19  1  0
 18  2  1  0
 18 15  1  0
 19 11  1  1
 20  1  1  0
 20 13  1  0
 21  2  1  0
M  END
$$$$

     RDKit          3D

 19 20  0  0  0  0  0  0  0  0999 V2000
   -7.0020   -2.0950  -18.3290 C   0  0  0  0  0  0  0  0  0  0  0  0
   -9.2850   -1.9970  -17.7390 N   0  0  0  0  0  0  0  0  0  0  0  0
   -5.8100   -2.5600  -16.0270 C   0  0  0  0  0  0  0  0  0  0  0  0
   -1.5540   -2.7080  -15.9480 C   0  0  0  0  0  0  0  0  0  0  0  0
   -4.5830   -1.6210  -18.0940 C   0  0  0  0  0  0  0  0  0  0  0  0
   -7.6920   -3.0570  -16.0770 N   0  0  0  0  0  0  0  0  0  0  0  0
   -9.6580   -4.0250  -16.7120 O   0  0  0  0  0  0  0  0  0  0  0  0
   -7.4770   -3.8310  -15.0190 O   0  0  0  0  0  0  0  0  0  0  0  0
   -2.9860   -2.8050  -16.5230 C   0  0  0  0  0  0  0  0  0  0  0  0
   -0.9980   -0.4500  -17.3440 C   0  0  0  0  0  0  0  0  0  0  0  0
   -8.8730   -3.0810  -16.8780 C   0  0  0  0  0  0  0  0  0  0  0  0
   -3.2420   -1.8360  -17.5190 C   0  0  0  0  0  0  0  0  0  0  0  0
   -8.1050   -1.1580  -18.0710 C   0  0  0  0  0  0  0  0  0  0  0  0
   -2.1280   -1.1440  -18.1730 C   0  0  0  0  0  0  0  0  0  0  0  0
   -5.9060   -2.0520  -17.4600 C   0  0  1  0  0  0  0  0  0  0  0  0
   -2.2240   -0.7760  -19.4810 C   0  0  0  0  0  0  0  0  0  0  0  0
   -0.7860   -1.3190  -16.0290 C   0  0  0  0  0  0  0  0  0  0  0  0
   -3.5220   -0.5820  -20.0420 C   0  0  0  0  0  0  0  0  0  0  0  0
   -4.6670   -0.9280  -19.3390 C   0  0  0  0  0  0  0  0  0  0  0  0
  1 13  1  0
  1 15  1  0
  2 11  1  0
  5 12  1  0
  5 15  1  0
  6  8  1  0
  9  4  1  0
 10 17  1  0
 11  7  2  0
 11  6  1  0
 12  9  1  0
 13  2  1  0
 14 12  2  0
 14 10  1  0
 15  3  1  6
 16 14  1  0
 17  4  1  0
 18 16  2  0
 18 19  1  0
 19  5  2  0
M  END
$$$$

     RDKit          3D

 20 20  0  0  0  0  0  0  0  0999 V2000
   -0.5900   -0.8780  -20.5230 C   0  0  0  0  0  0  0  0  0  0  0  0
   -1.8570   -3.7090  -17.2520 O   0  0  0  0  0  0  0  0  0  0  0  0
   -9.4600   -4.5170  -16.5030 O   0  0  0  0  0  0  0  0  0  0  0  0
   -9.0980   -0.7630  -17.5930 C   0  0  0  0  0  0  0  0  0  0  0  0
   -5.0610   -1.8460  -16.6920 C   0  0  0  0  0  0  0  0  0  0  0  0
   -0.2450   -1.1260  -17.8960 O   0  0  0  0  0  0  0  0  0  0  0  0
   -1.7300   -0.3940  -19.6290 C   0  0  0  0  0  0  0  0  0  0  0  0
   -8.8260   -2.3620  -17.3190 C   0  0  1  0  0  0  0  0  0  0  0  0
   -3.9220   -1.8320  -17.8820 C   0  0  1  0  0  0  0  0  0  0  0  0
   -6.7570   -2.2440  -18.8540 C   0  0  0  0  0  0  0  0  0  0  0  0
   -2.2920   -2.9460  -15.3070 O   0  0  0  0  0  0  0  0  0  0  0  0
   -2.0680   -2.7910  -16.6500 C   0  0  0  0  0  0  0  0  0  0  0  0
   -1.4360   -1.0430  -18.2950 C   0  0  0  0  0  0  0  0  0  0  0  0
   -7.7740   -4.1210  -15.3700 O   0  0  0  0  0  0  0  0  0  0  0  0
   -5.6830   -1.2850  -19.5100 C   0  0  0  0  0  0  0  0  0  0  0  0
   -4.4370   -0.7780  -18.8510 C   0  0  0  0  0  0  0  0  0  0  0  0
   -7.4990   -2.2140  -16.5990 O   0  0  0  0  0  0  0  0  0  0  0  0
   -2.5740   -1.4300  -17.3570 C   0  0  1  0  0  0  0  0  0  0  0  0
   -6.4900   -2.0070  -17.1590 C   0  0  0  0  0  0  0  0  0  0  0  0
   -8.5350   -3.6940  -16.5940 C   0  0  0  0  0  0  0  0  0  0  0  0
  1  7  1  0
  2 12  2  0
  7 13  1  0
  8  4  1  1
  8 17  1  0
  8 20  1  0
  9 18  1  0
  9  5  1  0
 10 19  1  0
 12 11  1  0
 13  6  2  0
 15 10  1  0
 15 16  1  0
  9 16  1  6
 18 13  1  6
 18 12  1  0
 19  5  2  0
 19 17  1  0
 20  3  2  0
 20 14  1  0
M  END
$$$$

     RDKit          3D

 20 20  0  0  0  0  0  0  0  0999 V2000
   -7.9760   -2.9190  -18.3270 C   0  0  0  0  0  0  0  0  0  0  0  0
   -1.8480   -2.2440  -17.4940 N   0  0  0  0  0  0  0  0  0  0  0  0
   -1.1920   -0.4330  -19.8990 C   0  0  0  0  0  0  0  0  0  0  0  0
   -4.2410   -3.2400  -15.1040 O   0  0  0  0  0  0  0  0  0  0  0  0
   -1.6900   -1.4940  -20.6530 O   0  0  0  0  0  0  0  0  0  0  0  0
   -3.8030   -1.0240  -17.7900 C   0  0  0  0  0  0  0  0  0  0  0  0
   -0.5200   -2.4560  -18.1510 C   0  0  0  0  0  0  0  0  0  0  0  0
   -2.4190   -0.9280  -17.7810 C   0  0  2  0  0  0  0  0  0  0  0  0
   -6.7810   -2.7960  -19.4550 N   0  0  0  0  0  0  0  0  0  0  0  0
   -2.3030   -2.8720  -16.2350 C   0  0  0  0  0  0  0  0  0  0  0  0
   -4.3830   -2.0010  -16.9480 C   0  0  0  0  0  0  0  0  0  0  0  0
   -8.8740   -4.1320  -16.0830 O   0  0  0  0  0  0  0  0  0  0  0  0
   -5.8810   -2.3090  -16.9590 O   0  0  0  0  0  0  0  0  0  0  0  0
   -7.5630   -0.8110  -18.9250 O   0  0  0  0  0  0  0  0  0  0  0  0
   -7.3680   -2.4440  -17.0230 C   0  0  2  0  0  0  0  0  0  0  0  0
   -2.0200    0.0760  -18.8900 C   0  0  0  0  0  0  0  0  0  0  0  0
   -7.1290   -1.8740  -19.1590 C   0  0  0  0  0  0  0  0  0  0  0  0
   -7.1740   -3.2130  -14.7950 O   0  0  0  0  0  0  0  0  0  0  0  0
   -3.7050   -2.7240  -16.0370 C   0  0  0  0  0  0  0  0  0  0  0  0
   -7.7640   -3.3780  -15.8850 C   0  0  0  0  0  0  0  0  0  0  0  0
  2 10  1  0
  3 16  1  0
  5  3  1  0
  6  8  1  0
  6 11  2  0
  7  2  1  0
  8 16  1  6
  8  2  1  0
  9 17  1  0
 10 19  1  0
 11 19  1  0
 12 20  2  0
 13 11  1  0
 15  1  1  6
 15 13  1  0
 15 20  1  0
 17 14  2  0
 17  1  1  0
 19  4  2  0
 20 18  1  0
M  END
$$$$

     RDKit          3D

 21 25  0  0  0  0  0  0  0  0999 V2000
   -7.3440   -3.9660  -15.0170 O   0  0  0  0  0  0  0  0  0  0  0  0
   -4.3220   -1.0090  -19.2040 C   0  0  0  0  0  0  0  0  0  0  0  0
   -6.0830   -1.8950  -17.6650 C   0  0  1  0  0  0  0  0  0  0  0  0
   -8.5600   -2.7260  -16.4260 C   0  0  0  0  0  0  0  0  0  0  0  0
   -6.2410   -2.7370  -16.6050 N   0  0  0  0  0  0  0  0  0  0  0  0
   -0.9890   -1.7740  -17.5800 C   0  0  0  0  0  0  0  0  0  0  0  0
   -4.7250   -1.2770  -17.9060 C   0  0  1  0  0  0  0  0  0  0  0  0
   -7.3180   -3.0940  -16.0370 C   0  0  0  0  0  0  0  0  0  0  0  0
   -1.9440   -1.9660  -18.6840 C   0  0  2  0  0  0  0  0  0  0  0  0
   -2.7760    0.0970  -17.2820 O   0  0  0  0  0  0  0  0  0  0  0  0
   -8.9420   -1.9650  -17.5280 C   0  0  0  0  0  0  0  0  0  0  0  0
   -1.1890    0.9900  -19.0250 C   0  0  0  0  0  0  0  0  0  0  0  0
   -8.3540   -1.5960  -18.5810 N   0  0  0  0  0  0  0  0  0  0  0  0
   -0.2170   -1.3390  -18.7950 C   0  0  1  0  0  0  0  0  0  0  0  0
   -6.5680   -1.0260  -19.9250 N   0  0  0  0  0  0  0  0  0  0  0  0
   -0.1450   -0.1520  -19.3250 O   0  0  0  0  0  0  0  0  0  0  0  0
   -7.0140   -1.5240  -18.6790 C   0  0  0  0  0  0  0  0  0  0  0  0
   -2.5290    0.3740  -18.7580 C   0  0  1  0  0  0  0  0  0  0  0  0
   -2.8270   -0.9970  -19.3390 C   0  0  2  0  0  0  0  0  0  0  0  0
   -3.5970   -0.9690  -16.9140 C   0  0  0  0  0  0  0  0  0  0  0  0
   -5.2470   -0.7830  -20.2160 C   0  0  0  0  0  0  0  0  0  0  0  0
  2 21  1  0
  2  7  1  0
  3 17  1  0
  3  5  1  6
  4  8  1  0
  5  8  1  0
  7  3  1  0
  7 20  1  6
  8  1  2  0
  9  6  1  1
 10 20  1  0
 11  4  2  0
 13 11  1  0
 14  9  1  0
 14  6  1  1
 15 17  1  0
 16 12  1  0
 16 14  1  0
 17 13  2  0
 18 12  1  1
 18 10  1  0
 19  2  1  1
 19 18  1  0
 19  9  1  0
 21 15  2  0
M  END
$$$$

     RDKit          3D

 22 26  0  0  0  0  0  0  0  0999 V2000
   -8.6290   -1.7710  -17.1560 C   0  0  1  0  0  0  0  0  0  0  0  0
   -0.8440    0.5730  -16.9780 C   0  0  0  0  0  0  0  0  0  0  0  0
   -4.1870   -1.6090  -18.2750 C   0  0  0  0  0  0  0  0  0  0  0  0
   -2.7620   -2.5680  -16.4760 C   0  0  1  0  0  0  0  0  0  0  0  0
   -8.1050   -1.0200  -18.1330 C   0  0  0  0  0  0  0  0  0  0  0  0
   -2.2970   -1.2440  -17.0600 C   0  0  2  0  0  0  0  0  0  0  0  0
   -1.3220    0.8050  -18.3160 C   0  0  0  0  0  0  0  0  0  0  0  0
   -6.1640   -3.3730  -18.7920 O   0  0  0  0  0  0  0  0  0  0  0  0
   -2.1850   -3.5870  -17.1330 C   0  0  0  0  0  0  0  0  0  0  0  0
   -2.9250   -0.8120  -18.1510 C   0  0  0  0  0  0  0  0  0  0  0  0
   -8.8590   -0.3920  -18.8780 O   0  0  0  0  0  0  0  0  0  0  0  0
   -6.3320   -2.4640  -16.7750 C   0  0  2  0  0  0  0  0  0  0  0  0
   -5.2680   -2.9950  -15.9770 N   0  0  0  0  0  0  0  0  0  0  0  0
   -1.4220   -0.5900  -16.4930 C   0  0  0  0  0  0  0  0  0  0  0  0
   -7.7570   -2.6770  -16.5590 C   0  0  0  0  0  0  0  0  0  0  0  0
   -9.9620   -1.3710  -16.6580 C   0  0  0  0  0  0  0  0  0  0  0  0
   -3.8300   -2.3640  -17.3580 C   0  0  2  0  0  0  0  0  0  0  0  0
   -6.9030   -1.1090  -18.5320 C   0  0  0  0  0  0  0  0  0  0  0  0
   -6.1270   -2.3610  -18.1810 C   0  0  2  0  0  0  0  0  0  0  0  0
   -4.1590   -2.1390  -16.2800 C   0  0  2  0  0  0  0  0  0  0  0  0
   -2.3910    0.1370  -18.8270 C   0  0  0  0  0  0  0  0  0  0  0  0
  -10.2300   -0.0080  -16.9650 O   0  0  0  0  0  0  0  0  0  0  0  0
  1 16  1  1
  1 15  1  0
  2 14  2  0
  3 10  1  0
  4  9  1  6
  4 20  1  0
  5  1  1  0
  6 14  1  6
  6  4  1  0
  7  2  1  0
 10  6  1  0
 11  5  2  0
 12 15  1  0
 12 13  1  6
 17  3  1  6
 17  6  1  0
 17  4  1  0
 17 20  1  0
 18 19  1  0
 18  5  1  0
 19  8  1  6
 19 12  1  0
 20 13  1  1
 21  7  1  0
 21 10  2  0
 22 16  1  0
M  END
$$$$

     RDKit          3D

 19 22  0  0  0  0  0  0  0  0999 V2000
   -2.3000   -1.1290  -19.2430 N   0  0  0  0  0  0  0  0  0  0  0  0
   -7.9810   -3.2170  -15.5860 N   0  0  0  0  0  0  0  0  0  0  0  0
   -0.5450   -0.8880  -20.7120 C   0  0  0  0  0  0  0  0  0  0  0  0
   -3.3850   -0.8350  -18.5320 C   0  0  0  0  0  0  0  0  0  0  0  0
   -6.2060   -1.3680  -18.6830 C   0  0  0  0  0  0  0  0  0  0  0  0
   -0.2870   -2.0640  -19.8170 C   0  0  0  0  0  0  0  0  0  0  0  0
   -3.9530   -1.8670  -17.8010 C   0  0  0  0  0  0  0  0  0  0  0  0
   -5.8620   -2.7530  -16.6410 C   0  0  0  0  0  0  0  0  0  0  0  0
   -1.8520   -3.1000  -17.7930 C   0  0  0  0  0  0  0  0  0  0  0  0
   -3.7630   -3.3970  -16.1200 C   0  0  0  0  0  0  0  0  0  0  0  0
   -5.0360   -3.3760  -15.8770 N   0  0  0  0  0  0  0  0  0  0  0  0
   -7.2990   -2.6310  -16.5480 C   0  0  0  0  0  0  0  0  0  0  0  0
   -5.3010   -1.9730  -17.7540 C   0  0  0  0  0  0  0  0  0  0  0  0
   -7.4720   -1.3350  -18.4880 N   0  0  0  0  0  0  0  0  0  0  0  0
   -3.2170   -2.7560  -17.2050 C   0  0  0  0  0  0  0  0  0  0  0  0
   -9.2220   -1.5420  -17.3360 C   0  0  0  0  0  0  0  0  0  0  0  0
   -7.8900   -1.8680  -17.4170 N   0  0  0  0  0  0  0  0  0  0  0  0
   -1.1770   -1.9720  -18.6300 C   0  0  2  0  0  0  0  0  0  0  0  0
   -1.9410   -0.6170  -20.4250 C   0  0  0  0  0  0  0  0  0  0  0  0
  1 19  1  0
  1 18  1  0
  1  4  1  0
  3 19  1  0
  3  6  1  0
  4  7  1  0
  5 14  2  0
  7 13  1  0
  7 15  2  0
  8 12  2  0
  8 11  1  0
  9 15  1  0
 10 11  2  0
 12  2  1  0
 13  5  1  0
 13  8  1  0
 14 17  1  0
 15 10  1  0
 17 16  1  0
 17 12  1  0
 18  6  1  6
 18  9  1  0
M  END
$$$$

     RDKit          3D

 20 21  0  0  0  0  0  0  0  0999 V2000
   -1.8390   -0.2400  -20.6130 C   0  0  0  0  0  0  0  0  0  0  0  0
   -9.2550   -4.5130  -16.6820 O   0  0  0  0  0  0  0  0  0  0  0  0
   -4.6590   -2.5160  -17.1210 C   0  0  0  0  0  0  0  0  0  0  0  0
    1.4210   -0.7710  -18.5220 C   0  0  0  0  0  0  0  0  0  0  0  0
   -3.3170   -0.1510  -20.0880 C   0  0  0  0  0  0  0  0  0  0  0  0
   -1.0010   -0.4310  -19.2960 C   0  0  1  0  0  0  0  0  0  0  0  0
   -7.1220   -2.2940  -16.9610 C   0  0  0  0  0  0  0  0  0  0  0  0
   -3.5970   -3.0040  -16.6340 O   0  0  0  0  0  0  0  0  0  0  0  0
   -8.5080   -3.8950  -15.9210 C   0  0  0  0  0  0  0  0  0  0  0  0
   -3.3020   -1.0690  -18.7980 C   0  0  0  0  0  0  0  0  0  0  0  0
   -7.8290   -4.3960  -15.0640 O   0  0  0  0  0  0  0  0  0  0  0  0
   -1.8690   -1.1930  -18.3340 C   0  0  1  0  0  0  0  0  0  0  0  0
   -4.5840   -1.6280  -18.2290 C   0  0  0  0  0  0  0  0  0  0  0  0
   -8.3440   -2.4150  -16.1770 C   0  0  0  0  0  0  0  0  0  0  0  0
    0.3610   -1.0950  -19.5950 C   0  0  0  0  0  0  0  0  0  0  0  0
   -1.4710   -2.7120  -18.3660 C   0  0  0  0  0  0  0  0  0  0  0  0
   -7.1170   -1.6590  -18.3410 C   0  0  0  0  0  0  0  0  0  0  0  0
   -5.8670   -2.7270  -16.4650 C   0  0  0  0  0  0  0  0  0  0  0  0
   -5.9510   -1.2770  -18.8080 C   0  0  0  0  0  0  0  0  0  0  0  0
   -1.6950   -0.6340  -16.9520 C   0  0  0  0  0  0  0  0  0  0  0  0
  1  5  1  0
  1  6  1  0
  2  9  2  0
  3  8  2  0
  3 18  1  0
  5 10  1  0
  6 15  1  6
  6 12  1  0
  7 18  2  0
  7 14  1  0
  9 11  1  0
 10 12  1  0
 10 13  2  3
 12 20  1  1
 13  3  1  0
 14  9  1  0
 15  4  1  0
 16 12  1  0
 17  7  1  0
 19 17  2  0
 19 13  1  0
M  END
$$$$

     RDKit          3D

 19 21  0  0  0  0  0  0  0  0999 V2000
   -4.6490   -1.2060  -18.6210 C   0  0  2  0  0  0  0  0  0  0  0  0
   -2.1560   -3.3840  -16.3680 C   0  0  0  0  0  0  0  0  0  0  0  0
   -1.9900   -2.0080  -15.8900 C   0  0  0  0  0  0  0  0  0  0  0  0
   -1.8500   -1.0980  -17.9600 C   0  0  1  0  0  0  0  0  0  0  0  0
   -6.1400   -3.3740  -15.6240 O   0  0  0  0  0  0  0  0  0  0  0  0
   -4.6050   -2.0380  -16.1370 N   0  0  0  0  0  0  0  0  0  0  0  0
   -1.1940   -1.0030  -20.3220 F   0  0  0  0  0  0  0  0  0  0  0  0
   -8.4320   -3.0490  -16.4100 O   0  0  0  0  0  0  0  0  0  0  0  0
   -7.8930   -2.4210  -17.3380 C   0  0  0  0  0  0  0  0  0  0  0  0
   -0.7260   -0.7740  -17.3730 C   0  0  0  0  0  0  0  0  0  0  0  0
   -5.8040   -2.6040  -16.3210 C   0  0  0  0  0  0  0  0  0  0  0  0
   -6.5790   -2.1450  -17.4800 C   0  0  0  0  0  0  0  0  0  0  0  0
   -2.1710   -0.9880  -19.3800 C   0  0  2  0  0  0  0  0  0  0  0  0
    0.5260   -0.5390  -16.8420 C   0  0  0  0  0  0  0  0  0  0  0  0
   -6.0440   -1.4930  -18.6300 C   0  0  0  0  0  0  0  0  0  0  0  0
   -8.8290   -2.0360  -18.3260 N   0  0  0  0  0  0  0  0  0  0  0  0
   -4.1070   -1.2730  -17.2370 C   0  0  1  0  0  0  0  0  0  0  0  0
   -3.7430   -0.6340  -19.9140 S   0  0  0  0  0  0  0  0  0  0  0  0
   -2.7810   -1.8750  -17.0330 C   0  0  1  0  0  0  0  0  0  0  0  0
  1 15  1  0
  1 17  1  0
  2  3  1  0
  4 10  1  6
  4 19  1  0
  9  8  2  0
 10 14  1  0
 11  6  1  0
 11  5  2  0
 12  9  1  0
 12 11  1  0
 13  7  1  1
 13  4  1  0
 15 12  2  0
 16  9  1  0
 17 19  1  0
 17  6  1  1
 18 13  1  0
  1 18  1  1
 19  2  1  6
 19  3  1  0
M  END
$$$$

     RDKit          3D

 20 22  0  0  0  0  0  0  0  0999 V2000
   -5.2990   -2.4510  -16.6540 C   0  0  0  0  0  0  0  0  0  0  0  0
   -3.3620   -3.0060  -15.9850 N   0  0  0  0  0  0  0  0  0  0  0  0
   -0.1990   -1.6470  -19.8370 C   0  0  0  0  0  0  0  0  0  0  0  0
    0.6990   -1.9550  -20.9260 N   0  0  0  0  0  0  0  0  0  0  0  0
   -0.0340   -2.5270  -18.7430 C   0  0  0  0  0  0  0  0  0  0  0  0
   -8.5520   -1.2720  -17.9700 C   0  0  0  0  0  0  0  0  0  0  0  0
   -6.6610   -2.4080  -16.9300 C   0  0  0  0  0  0  0  0  0  0  0  0
   -8.8710   -3.2210  -16.5420 C   0  0  0  0  0  0  0  0  0  0  0  0
   -2.1660   -0.8690  -18.8570 C   0  0  0  0  0  0  0  0  0  0  0  0
   -1.0140   -2.5980  -17.7780 C   0  0  0  0  0  0  0  0  0  0  0  0
   -2.0930   -1.7690  -17.8480 C   0  0  0  0  0  0  0  0  0  0  0  0
   -7.2050   -1.4730  -17.8820 C   0  0  0  0  0  0  0  0  0  0  0  0
   -9.6610   -4.2630  -16.0920 O   0  0  0  0  0  0  0  0  0  0  0  0
   -4.6580   -0.6560  -17.9820 F   0  0  0  0  0  0  0  0  0  0  0  0
   -9.4060   -2.1500  -17.2680 C   0  0  0  0  0  0  0  0  0  0  0  0
   -1.1570   -0.7540  -19.8600 C   0  0  0  0  0  0  0  0  0  0  0  0
   -4.4310   -1.5950  -17.2300 C   0  0  0  0  0  0  0  0  0  0  0  0
   -7.5110   -3.2490  -16.2830 C   0  0  0  0  0  0  0  0  0  0  0  0
   -3.2380   -2.1130  -16.9620 C   0  0  1  0  0  0  0  0  0  0  0  0
   -4.6740   -3.2480  -15.8370 N   0  0  0  0  0  0  0  0  0  0  0  0
  1 20  1  0
  2 20  1  0
  3  5  2  0
  4  3  1  0
  5 10  1  0
  6 12  2  0
  6 15  1  0
  7  1  1  0
  7 18  2  0
  8 18  1  0
  8 13  1  0
  9 11  1  0
 11 10  2  0
 12  7  1  0
 14 17  1  0
 15  8  2  0
 16  3  1  0
 16  9  2  0
 17 19  1  0
 17  1  2  0
 19 11  1  6
 19  2  1  0
M  END
$$$$

     RDKit          3D

 21 23  0  0  0  0  0  0  0  0999 V2000
   -2.7420   -1.1100  -19.8830 C   0  0  0  0  0  0  0  0  0  0  0  0
   -3.5330   -0.5990  -20.6180 C   0  0  0  0  0  0  0  0  0  0  0  0
   -1.8040   -1.7010  -18.9240 C   0  0  2  0  0  0  0  0  0  0  0  0
   -4.8240   -2.2300  -17.7780 C   0  0  0  0  0  0  0  0  0  0  0  0
   -2.0940   -3.3950  -16.6190 C   0  0  0  0  0  0  0  0  0  0  0  0
   -8.1720   -3.3030  -15.5270 O   0  0  0  0  0  0  0  0  0  0  0  0
   -3.4430   -2.9090  -15.8480 C   0  0  2  0  0  0  0  0  0  0  0  0
   -7.0790   -2.8080  -16.2520 C   0  0  0  0  0  0  0  0  0  0  0  0
   -7.2260   -1.9280  -17.3840 C   0  0  0  0  0  0  0  0  0  0  0  0
   -0.0530   -0.3840  -17.4830 O   0  0  0  0  0  0  0  0  0  0  0  0
   -6.1640   -1.2610  -19.1240 F   0  0  0  0  0  0  0  0  0  0  0  0
   -1.2350    0.7340  -18.7930 C   0  0  0  0  0  0  0  0  0  0  0  0
   -4.7400   -2.8550  -16.5940 C   0  0  1  0  0  0  0  0  0  0  0  0
   -1.8090   -1.6310  -17.6390 C   0  0  1  0  0  0  0  0  0  0  0  0
   -7.7760   -4.5570  -15.0440 O   0  0  0  0  0  0  0  0  0  0  0  0
   -8.4960   -1.3230  -17.7250 C   0  0  0  0  0  0  0  0  0  0  0  0
   -1.3420   -0.4820  -18.2030 C   0  0  1  0  0  0  0  0  0  0  0  0
   -2.4100   -2.0240  -16.4770 C   0  0  2  0  0  0  0  0  0  0  0  0
   -6.0300   -1.8040  -18.0620 C   0  0  0  0  0  0  0  0  0  0  0  0
   -1.3050    1.9480  -17.5290 S   0  0  0  0  0  0  0  0  0  0  0  0
   -5.8120   -3.2070  -15.8140 N   0  0  0  0  0  0  0  0  0  0  0  0
  2  1  3  0
  3  1  1  6
  3 17  1  0
  3 14  1  0
  6 15  1  0
  7  5  1  6
  8 21  2  0
  8  6  1  0
  9 16  1  0
  9  8  1  0
 11 19  1  0
 12 17  1  0
 12 20  1  0
 13  4  1  1
 13  7  1  0
 13 21  1  0
 14 18  1  6
 17 14  1  0
 17 10  1  1
 18  5  1  1
 18  7  1  0
 19  4  2  0
 19  9  1  0
M  END
$$$$

     RDKit          3D

 21 23  0  0  0  0  0  0  0  0999 V2000
   -6.6780   -2.6680  -16.6880 C   0  0  0  0  0  0  0  0  0  0  0  0
   -8.8830   -3.2640  -16.2840 N   0  0  0  0  0  0  0  0  0  0  0  0
   -9.1590   -2.5720  -17.3980 C   0  0  0  0  0  0  0  0  0  0  0  0
   -2.6360   -2.0590  -17.9080 C   0  0  0  0  0  0  0  0  0  0  0  0
    0.5190   -1.3580  -20.4300 C   0  0  0  0  0  0  0  0  0  0  0  0
   -0.7420   -0.2300  -20.2130 C   0  0  0  0  0  0  0  0  0  0  0  0
   -4.9160   -1.7260  -17.7160 C   0  0  0  0  0  0  0  0  0  0  0  0
   -8.3580   -1.9560  -18.2320 N   0  0  0  0  0  0  0  0  0  0  0  0
    0.9590   -1.3470  -18.9600 C   0  0  0  0  0  0  0  0  0  0  0  0
   -3.6820   -1.1930  -18.0040 N   0  0  0  0  0  0  0  0  0  0  0  0
   -7.0710   -1.9430  -17.8710 C   0  0  0  0  0  0  0  0  0  0  0  0
   -7.2800   -3.9920  -14.9370 O   0  0  0  0  0  0  0  0  0  0  0  0
    0.0410   -2.0570  -16.5620 C   0  0  0  0  0  0  0  0  0  0  0  0
   -7.6100   -3.2970  -15.8790 C   0  0  0  0  0  0  0  0  0  0  0  0
   -0.0830   -2.1890  -18.0500 C   0  0  1  0  0  0  0  0  0  0  0  0
   -0.9880   -0.4620  -18.7250 C   0  0  0  0  0  0  0  0  0  0  0  0
   -5.1950   -2.5090  -16.6250 C   0  0  0  0  0  0  0  0  0  0  0  0
   -5.8970   -1.4490  -18.4710 N   0  0  0  0  0  0  0  0  0  0  0  0
   -1.3860   -1.4360  -18.3780 C   0  0  2  0  0  0  0  0  0  0  0  0
   -0.0170   -3.5370  -18.6190 C   0  0  0  0  0  0  0  0  0  0  0  0
   -2.5120   -3.1070  -17.4070 O   0  0  0  0  0  0  0  0  0  0  0  0
  1 17  2  0
  1 14  1  0
  2 14  1  0
  3  2  2  0
  4 21  2  0
  5  6  1  0
  5  9  1  0
  6 16  1  0
  7 17  1  0
  8 11  2  0
  8  3  1  0
  9 15  1  0
 10  4  1  0
 10  7  1  0
 11  1  1  0
 14 12  2  0
 15 13  1  1
 16 19  1  0
 18 11  1  0
 18  7  2  0
 19 15  1  0
 19  4  1  1
 20 15  1  0
M  END
$$$$

     RDKit          3D

 21 24  0  0  0  0  0  0  0  0999 V2000
   -1.3620   -0.6020  -18.6960 C   0  0  0  0  0  0  0  0  0  0  0  0
   -8.9170   -2.8720  -16.8200 N   0  0  0  0  0  0  0  0  0  0  0  0
   -6.6240   -1.3010  -19.0310 N   0  0  0  0  0  0  0  0  0  0  0  0
   -2.7110   -2.7990  -15.9500 C   0  0  2  0  0  0  0  0  0  0  0  0
    0.3900   -0.4370  -16.9830 C   0  0  0  0  0  0  0  0  0  0  0  0
   -4.5480   -1.8150  -17.7150 C   0  0  2  0  0  0  0  0  0  0  0  0
   -8.2420   -0.4820  -18.1150 O   0  0  0  0  0  0  0  0  0  0  0  0
    0.0730   -0.6380  -18.3590 C   0  0  0  0  0  0  0  0  0  0  0  0
   -3.1080   -1.6930  -17.8080 C   0  0  2  0  0  0  0  0  0  0  0  0
   -9.0800   -4.1280  -16.2960 C   0  0  0  0  0  0  0  0  0  0  0  0
   -1.0550   -0.6060  -16.4430 C   0  0  1  0  0  0  0  0  0  0  0  0
  -10.0560   -2.5520  -17.5380 C   0  0  0  0  0  0  0  0  0  0  0  0
   -2.5640   -2.3860  -17.4450 C   0  0  0  0  0  0  0  0  0  0  0  0
   -6.4000   -2.8130  -16.2770 C   0  0  0  0  0  0  0  0  0  0  0  0
   -4.1640   -2.6980  -15.5620 O   0  0  0  0  0  0  0  0  0  0  0  0
   -1.9460   -0.3560  -17.4800 C   0  0  1  0  0  0  0  0  0  0  0  0
   -5.1370   -2.6440  -16.4630 C   0  0  0  0  0  0  0  0  0  0  0  0
   -7.5110   -1.4080  -18.0710 C   0  0  0  0  0  0  0  0  0  0  0  0
   -5.3710   -1.5470  -18.8660 C   0  0  0  0  0  0  0  0  0  0  0  0
   -7.6520   -2.3850  -17.1850 C   0  0  2  0  0  0  0  0  0  0  0  0
   -1.2420   -2.0780  -16.0030 C   0  0  0  0  0  0  0  0  0  0  0  0
  1  8  1  0
  2 10  1  0
  3 19  2  0
  3 18  1  0
  4 13  1  0
  4 15  1  0
  6 19  1  6
  6 17  1  0
  7 18  2  0
  8  5  1  0
  9  6  1  0
  9 16  1  0
  9 13  1  1
 11  5  1  6
 11 21  1  0
 12  2  1  0
 16  1  1  6
 16 11  1  0
 17 14  2  0
 17 15  1  0
 18 20  1  0
 20  2  1  1
 20 14  1  0
  4 21  1  1
M  END
$$$$

     RDKit          3D

 19 20  0  0  0  0  0  0  0  0999 V2000
   -9.7400   -2.4110  -17.5330 C   0  0  0  0  0  0  0  0  0  0  0  0
   -3.0040   -1.6760  -19.0000 O   0  0  0  0  0  0  0  0  0  0  0  0
   -0.8830   -2.9370  -15.4950 O   0  0  0  0  0  0  0  0  0  0  0  0
   -7.4620   -3.1430  -14.9250 O   0  0  0  0  0  0  0  0  0  0  0  0
   -8.2670   -2.1540  -17.1340 C   0  0  2  0  0  0  0  0  0  0  0  0
   -5.6940   -2.6520  -16.5550 N   0  0  0  0  0  0  0  0  0  0  0  0
   -3.6650   -2.0660  -17.8360 C   0  0  0  0  0  0  0  0  0  0  0  0
   -6.0140   -1.9560  -18.7010 C   0  0  0  0  0  0  0  0  0  0  0  0
   -4.9360   -2.9280  -15.4860 C   0  0  0  0  0  0  0  0  0  0  0  0
   -8.7530   -4.4390  -16.3260 O   0  0  0  0  0  0  0  0  0  0  0  0
   -5.5770   -1.2310  -19.8000 O   0  0  0  0  0  0  0  0  0  0  0  0
   -0.5210   -1.6400  -17.5210 C   0  0  0  0  0  0  0  0  0  0  0  0
   -1.4030   -2.6370  -16.8250 C   0  0  2  0  0  0  0  0  0  0  0  0
   -7.6980   -3.3570  -16.2180 S   0  0  1  0  0  0  0  0  0  0  0  0
   -5.0550   -2.2630  -17.7720 C   0  0  0  0  0  0  0  0  0  0  0  0
   -2.9410   -2.3680  -16.7010 C   0  0  0  0  0  0  0  0  0  0  0  0
   -9.4650   -1.5070  -16.4020 C   0  0  0  0  0  0  0  0  0  0  0  0
   -3.5600   -2.6440  -15.4480 C   0  0  0  0  0  0  0  0  0  0  0  0
    0.9500   -1.8930  -17.3590 N   0  0  0  0  0  0  0  0  0  0  0  0
  5  1  1  6
  1 17  1  0
  2  7  1  0
  5 17  1  0
  5 14  1  0
 14  6  1  6
  6  9  1  0
  7 15  2  0
  7 16  1  0
  8 15  1  0
  9 18  1  0
 10 14  2  0
 11  8  1  0
 12 19  1  0
 12 13  1  0
 13 16  1  0
 13  3  1  1
 14  4  2  0
 15  6  1  0
 16 18  2  0
M  END
$$$$

     RDKit          3D

 22 25  0  0  0  0  0  0  0  0999 V2000
  -10.6030   -0.8400  -16.3420 C   0  0  0  0  0  0  0  0  0  0  0  0
   -7.0570   -1.7890  -17.5330 C   0  0  0  0  0  0  0  0  0  0  0  0
   -7.4370   -3.9920  -14.7060 O   0  0  0  0  0  0  0  0  0  0  0  0
   -7.5670   -2.5020  -16.4370 C   0  0  2  0  0  0  0  0  0  0  0  0
   -8.4940   -0.9360  -18.2750 S   0  0  0  0  0  0  0  0  0  0  0  0
   -8.7930   -2.1130  -15.9190 N   0  0  0  0  0  0  0  0  0  0  0  0
   -1.3750    0.8810  -17.3880 C   0  0  0  0  0  0  0  0  0  0  0  0
   -0.6040    0.5350  -18.6580 C   0  0  0  0  0  0  0  0  0  0  0  0
   -0.6920   -0.2550  -20.9670 O   0  0  0  0  0  0  0  0  0  0  0  0
   -5.4830   -3.4430  -15.9420 N   0  0  0  0  0  0  0  0  0  0  0  0
   -5.0970   -1.1040  -18.9550 C   0  0  0  0  0  0  0  0  0  0  0  0
   -3.4480    0.0040  -21.0660 O   0  0  0  0  0  0  0  0  0  0  0  0
   -5.6990   -1.8150  -17.8580 C   0  0  0  0  0  0  0  0  0  0  0  0
   -2.8100   -0.3560  -19.8960 N   0  0  0  0  0  0  0  0  0  0  0  0
   -3.6410   -0.8650  -18.8540 C   0  0  0  0  0  0  0  0  0  0  0  0
   -6.7520   -3.3130  -15.6630 C   0  0  0  0  0  0  0  0  0  0  0  0
   -3.0290   -1.1200  -17.5260 C   0  0  0  0  0  0  0  0  0  0  0  0
   -2.1510   -0.1020  -16.8220 C   0  0  0  0  0  0  0  0  0  0  0  0
   -9.3320   -1.3160  -16.7760 C   0  0  0  0  0  0  0  0  0  0  0  0
   -4.8660   -2.5440  -16.8970 C   0  0  0  0  0  0  0  0  0  0  0  0
   -1.3580   -0.0160  -19.9280 C   0  0  0  0  0  0  0  0  0  0  0  0
   -3.4780   -2.2820  -16.8990 C   0  0  0  0  0  0  0  0  0  0  0  0
  2  5  1  0
  2  4  1  0
  4  6  1  1
  4 16  1  0
  5 19  1  0
  7 18  1  0
  8  7  1  0
  9 21  2  0
 10 16  1  0
 11 15  2  0
 11 13  1  0
 12 14  1  0
 13  2  1  0
 13 20  2  0
 14 15  1  0
 15 17  1  0
 16  3  2  0
 17 22  2  0
 17 18  1  0
 19  1  1  0
 19  6  1  0
 20 10  1  0
 21 14  1  0
 21  8  1  0
 22 20  1  0
M  END
$$$$

     RDKit          3D

 20 23  0  0  0  0  0  0  0  0999 V2000
   -0.9120   -3.2010  -15.0320 O   0  0  0  0  0  0  0  0  0  0  0  0
   -0.8300    0.2270  -17.9420 C   0  0  0  0  0  0  0  0  0  0  0  0
   -1.5450   -2.5140  -15.8260 C   0  0  0  0  0  0  0  0  0  0  0  0
   -8.2470   -2.3020  -17.2350 C   0  0  0  0  0  0  0  0  0  0  0  0
   -7.7060   -1.6750  -18.3520 C   0  0  0  0  0  0  0  0  0  0  0  0
   -4.9170   -1.0840  -18.8570 C   0  0  2  0  0  0  0  0  0  0  0  0
   -6.7420   -1.4830  -18.6250 C   0  0  1  0  0  0  0  0  0  0  0  0
   -1.5920   -0.8930  -17.3960 C   0  0  1  0  0  0  0  0  0  0  0  0
   -5.2120   -2.0160  -17.7340 C   0  0  1  0  0  0  0  0  0  0  0  0
   -9.5610   -2.4930  -17.3020 O   0  0  0  0  0  0  0  0  0  0  0  0
   -5.8930   -2.6070  -16.5250 C   0  0  0  0  0  0  0  0  0  0  0  0
   -0.9370   -1.5490  -16.4090 N   0  0  0  0  0  0  0  0  0  0  0  0
   -2.8810   -1.1900  -17.8140 C   0  0  2  0  0  0  0  0  0  0  0  0
   -3.6600   -2.1680  -17.1040 C   0  0  0  0  0  0  0  0  0  0  0  0
    0.3200   -1.2140  -15.9560 O   0  0  0  0  0  0  0  0  0  0  0  0
   -2.7990   -2.8210  -16.1470 C   0  0  0  0  0  0  0  0  0  0  0  0
   -7.6630   -3.4760  -15.2790 C   0  0  0  0  0  0  0  0  0  0  0  0
   -7.3150   -2.7840  -16.3170 C   0  0  0  0  0  0  0  0  0  0  0  0
   -3.5600   -0.7600  -18.9500 N   0  0  0  0  0  0  0  0  0  0  0  0
   -7.7600   -4.6250  -14.8960 O   0  0  0  0  0  0  0  0  0  0  0  0
  3  1  2  0
  4 18  1  0
  5  4  2  0
  6 19  1  1
  6  7  1  0
  6  9  1  0
  7  5  1  1
  7  9  1  0
  8  2  1  1
  8 12  1  0
  9 14  1  0
  9 11  1  6
 10  4  1  0
 11 18  2  0
 12 15  1  0
 12  3  1  0
 13 19  1  6
 13  8  1  0
 13 14  1  0
 14 16  2  0
 16  3  1  0
 17 20  2  0
 18 17  1  0
M  END
$$$$

     RDKit          3D

 19 21  0  0  0  0  0  0  0  0999 V2000
   -7.1720   -1.3620  -18.0090 C   0  0  1  0  0  0  0  0  0  0  0  0
   -6.7830   -3.1830  -19.5010 N   0  0  0  0  0  0  0  0  0  0  0  0
   -2.5250   -1.3730  -18.8980 C   0  0  2  0  0  0  0  0  0  0  0  0
   -0.5240   -1.2650  -20.5050 C   0  0  0  0  0  0  0  0  0  0  0  0
   -4.4940   -1.3030  -18.1690 C   0  0  2  0  0  0  0  0  0  0  0  0
   -1.0370   -2.0780  -19.4110 C   0  0  1  0  0  0  0  0  0  0  0  0
   -5.2040   -2.8780  -15.8790 C   0  0  0  0  0  0  0  0  0  0  0  0
   -6.1810   -2.5040  -16.4350 C   0  0  1  0  0  0  0  0  0  0  0  0
   -9.5180   -2.0360  -17.1480 O   0  0  0  0  0  0  0  0  0  0  0  0
   -7.8850   -4.0010  -15.8100 O   0  0  0  0  0  0  0  0  0  0  0  0
   -8.4420   -2.2230  -17.0010 C   0  0  0  0  0  0  0  0  0  0  0  0
   -3.1720   -1.9570  -17.8510 C   0  0  0  0  0  0  0  0  0  0  0  0
   -5.9320   -1.3940  -17.3270 C   0  0  2  0  0  0  0  0  0  0  0  0
   -3.1160   -0.9190  -19.9090 N   0  0  0  0  0  0  0  0  0  0  0  0
   -7.3970   -2.3040  -18.7490 C   0  0  0  0  0  0  0  0  0  0  0  0
   -7.4890   -2.9160  -16.3960 C   0  0  0  0  0  0  0  0  0  0  0  0
   -5.8630   -2.9610  -14.9030 O   0  0  0  0  0  0  0  0  0  0  0  0
   -4.3810   -0.6610  -19.3490 C   0  0  0  0  0  0  0  0  0  0  0  0
   -0.0880   -2.3960  -18.3740 C   0  0  0  0  0  0  0  0  0  0  0  0
  1 15  1  6
  1 13  1  0
  1 11  1  0
  2 15  2  0
  3  6  1  0
  3 12  1  6
  6  4  1  6
  5 18  1  6
  5 12  1  0
  6 19  1  0
  7 17  1  0
  8 16  1  0
  8  7  1  6
  8 17  1  0
  9 11  2  0
 11 16  1  0
 13  5  1  6
 13  8  1  0
 14 18  1  0
 14  3  1  0
 16 10  1  0
M  END
$$$$

     RDKit          3D

 19 21  0  0  0  0  0  0  0  0999 V2000
   -6.5820   -2.9490  -19.0810 O   0  0  0  0  0  0  0  0  0  0  0  0
   -4.5440   -2.1070  -17.9430 C   0  0  1  0  0  0  0  0  0  0  0  0
   -2.6950   -3.0360  -16.8440 C   0  0  1  0  0  0  0  0  0  0  0  0
   -6.8290   -1.6870  -18.9820 C   0  0  2  0  0  0  0  0  0  0  0  0
   -8.7680   -3.4710  -17.1770 C   0  0  0  0  0  0  0  0  0  0  0  0
   -3.2990   -1.3110  -18.2570 C   0  0  2  0  0  0  0  0  0  0  0  0
   -6.9150   -2.0840  -17.3440 C   0  0  2  0  0  0  0  0  0  0  0  0
   -2.7700    0.1070  -17.3710 C   0  0  0  0  0  0  0  0  0  0  0  0
   -8.3530   -2.1470  -17.2270 C   0  0  1  0  0  0  0  0  0  0  0  0
   -9.5280   -1.1240  -17.3260 C   0  0  0  0  0  0  0  0  0  0  0  0
   -4.0890   -3.3720  -17.3590 C   0  0  0  0  0  0  0  0  0  0  0  0
   -3.3520   -0.6000  -19.5880 C   0  0  0  0  0  0  0  0  0  0  0  0
   -9.3510   -3.9980  -18.3000 N   0  0  0  0  0  0  0  0  0  0  0  0
   -7.3950   -0.7550  -19.1640 O   0  0  0  0  0  0  0  0  0  0  0  0
   -2.2400   -2.2750  -18.0510 C   0  0  0  0  0  0  0  0  0  0  0  0
   -8.7760   -4.2310  -16.1490 O   0  0  0  0  0  0  0  0  0  0  0  0
   -2.5470   -2.4220  -15.5140 O   0  0  0  0  0  0  0  0  0  0  0  0
   -5.4810   -1.4580  -16.8000 C   0  0  0  0  0  0  0  0  0  0  0  0
   -5.5680   -2.1770  -18.9450 C   0  0  2  0  0  0  0  0  0  0  0  0
  1  4  1  0
  2 11  1  1
  2 18  1  0
  3 17  1  1
  4 14  1  6
  4 19  1  0
  4  7  1  0
  5 16  2  0
  6 15  1  0
  6  2  1  0
  6  8  1  1
  7  9  1  0
  7 18  1  1
  9 10  1  6
  9  5  1  0
 11  3  1  0
 12  6  1  0
 13  5  1  0
 15  3  1  0
 19  1  1  1
 19  2  1  0
M  END
$$$$

     RDKit          3D

 20 21  0  0  0  0  0  0  0  0999 V2000
   -5.0250   -1.7870  -17.6490 C   0  0  0  0  0  0  0  0  0  0  0  0
   -3.7910   -1.2950  -18.0890 C   0  0  0  0  0  0  0  0  0  0  0  0
   -3.9800   -0.9860  -19.3970 N   0  0  0  0  0  0  0  0  0  0  0  0
   -5.5280   -2.3480  -16.4030 C   0  0  0  0  0  0  0  0  0  0  0  0
   -1.3370   -0.0110  -19.2360 C   0  0  0  0  0  0  0  0  0  0  0  0
   -6.7800   -2.7170  -16.3900 C   0  0  0  0  0  0  0  0  0  0  0  0
   -7.2210   -1.9140  -18.6690 C   0  0  0  0  0  0  0  0  0  0  0  0
   -9.7820   -0.6350  -17.6600 O   0  0  0  0  0  0  0  0  0  0  0  0
   -7.7620   -4.4170  -14.9070 O   0  0  0  0  0  0  0  0  0  0  0  0
   -9.9440   -1.6580  -16.8330 C   0  0  0  0  0  0  0  0  0  0  0  0
   -2.6210   -1.1580  -17.3550 C   0  0  0  0  0  0  0  0  0  0  0  0
   -5.8340   -1.5640  -18.7180 C   0  0  0  0  0  0  0  0  0  0  0  0
   -5.1800   -1.0900  -19.7960 N   0  0  0  0  0  0  0  0  0  0  0  0
   -7.6470   -2.4270  -17.3910 N   0  0  0  0  0  0  0  0  0  0  0  0
   -1.3850   -0.4710  -17.7930 C   0  0  1  0  0  0  0  0  0  0  0  0
   -0.5180   -1.6250  -17.4790 N   0  0  0  0  0  0  0  0  0  0  0  0
   -7.3300   -3.6800  -15.5300 C   0  0  0  0  0  0  0  0  0  0  0  0
    0.6860   -1.7750  -17.9100 C   0  0  0  0  0  0  0  0  0  0  0  0
   -2.4680   -1.7570  -16.1540 O   0  0  0  0  0  0  0  0  0  0  0  0
   -9.0210   -2.7870  -17.0920 C   0  0  0  0  0  0  0  0  0  0  0  0
  1  4  1  0
  2  1  1  0
  2 11  2  3
  3  2  1  0
  4  6  1  0
  6 17  2  0
  7 14  1  0
  8 10  1  0
 11 19  1  0
 12  7  1  0
 12  1  2  0
 13  3  2  0
 13 12  1  0
 14 20  1  0
 14  6  1  0
 15  5  1  6
 15 16  1  0
 15 11  1  0
 17  9  2  0
 18 16  2  0
 20 10  1  0
M  END
$$$$

     RDKit          3D

 20 21  0  0  0  0  0  0  0  0999 V2000
   -5.4090   -2.9530  -15.9630 C   0  0  0  0  0  0  0  0  0  0  0  0
   -2.5790   -1.5770  -18.5430 O   0  0  0  0  0  0  0  0  0  0  0  0
   -4.6210   -2.0890  -16.8260 C   0  0  1  0  0  0  0  0  0  0  0  0
   -7.3760   -2.4780  -17.2190 C   0  0  0  0  0  0  0  0  0  0  0  0
   -6.7420   -2.0450  -18.5460 C   0  0  2  0  0  0  0  0  0  0  0  0
   -2.1940   -2.1700  -17.2790 C   0  0  2  0  0  0  0  0  0  0  0  0
   -0.2660   -1.2620  -19.2050 C   0  0  0  0  0  0  0  0  0  0  0  0
    0.0130   -1.0260  -17.8210 C   0  0  0  0  0  0  0  0  0  0  0  0
   -1.6270   -1.7450  -19.6050 C   0  0  0  0  0  0  0  0  0  0  0  0
   -3.2060   -1.9810  -16.1500 C   0  0  0  0  0  0  0  0  0  0  0  0
   -6.7790   -2.9560  -15.9810 C   0  0  0  0  0  0  0  0  0  0  0  0
   -6.7770   -2.9870  -19.6020 N   0  0  0  0  0  0  0  0  0  0  0  0
   -9.3050   -0.1360  -17.2660 O   0  0  0  0  0  0  0  0  0  0  0  0
   -9.1950   -3.6780  -18.1620 O   0  0  0  0  0  0  0  0  0  0  0  0
   -9.7240   -1.3670  -17.7920 C   0  0  0  0  0  0  0  0  0  0  0  0
   -0.9570   -1.4290  -16.7200 C   0  0  0  0  0  0  0  0  0  0  0  0
   -8.9160   -2.7700  -17.1900 C   0  0  2  0  0  0  0  0  0  0  0  0
   -7.7190   -3.4980  -14.9260 C   0  0  0  0  0  0  0  0  0  0  0  0
   -8.6180   -4.1500  -15.8630 N   0  0  0  0  0  0  0  0  0  0  0  0
   -5.2240   -1.5800  -18.2650 C   0  0  0  0  0  0  0  0  0  0  0  0
  2  6  1  0
  3 10  1  6
  3  1  1  0
  4 17  1  0
  4 11  2  0
  5 12  1  6
  5 20  1  0
  5  4  1  0
  6 16  1  0
  6 10  1  1
  7  8  2  0
  8 16  1  0
  9  7  1  0
  9  2  1  0
 11  1  1  0
 11 18  1  0
 15 13  1  0
 15 17  1  0
 17 14  1  6
 19 18  1  0
 20  3  1  0
M  END
$$$$

     RDKit          3D

 16 16  0  0  0  0  0  0  0  0999 V2000
   -3.6670   -0.9620  -17.2920 C   0  0  0  0  0  0  0  0  0  0  0  0
   -8.5680   -2.8590  -17.0360 C   0  0  1  0  0  0  0  0  0  0  0  0
   -5.2990   -2.7330  -16.3020 C   0  0  0  0  0  0  0  0  0  0  0  0
   -6.2700   -1.7310  -16.9550 C   0  0  0  0  0  0  0  0  0  0  0  0
   -3.0350   -3.3750  -17.1700 C   0  0  0  0  0  0  0  0  0  0  0  0
   -2.4270   -0.6930  -17.8800 C   0  0  0  0  0  0  0  0  0  0  0  0
   -7.9960   -0.7530  -18.6630 O   0  0  0  0  0  0  0  0  0  0  0  0
   -8.1380   -2.9920  -15.7200 C   0  0  0  0  0  0  0  0  0  0  0  0
   -9.8640   -3.2650  -17.6100 C   0  0  0  0  0  0  0  0  0  0  0  0
   -3.9410   -2.3380  -16.9320 C   0  0  0  0  0  0  0  0  0  0  0  0
   -6.9130   -2.8380  -19.2850 O   0  0  0  0  0  0  0  0  0  0  0  0
   -1.8080   -3.0680  -17.8110 C   0  0  0  0  0  0  0  0  0  0  0  0
   -9.5240   -4.5540  -18.2360 N   0  0  0  0  0  0  0  0  0  0  0  0
   -7.8770   -4.3410  -15.1390 O   0  0  0  0  0  0  0  0  0  0  0  0
   -7.4530   -1.9950  -18.1730 S   0  0  2  0  0  0  0  0  0  0  0  0
   -1.4630   -1.7600  -17.9740 C   0  0  0  0  0  0  0  0  0  0  0  0
  1 10  2  0
  2  9  1  1
  2  8  1  0
  4  3  1  0
  5 10  1  0
  6  1  1  0
  7 15  2  0
  8 14  1  0
 10  3  1  0
 11 15  2  0
 12  5  2  0
 13  9  1  0
 15  2  1  0
 15  4  1  1
 16  6  2  0
 16 12  1  0
M  END
$$$$

     RDKit          3D

 20 22  0  0  0  0  0  0  0  0999 V2000
   -4.0930   -1.6120  -17.8250 C   0  0  0  0  0  0  0  0  0  0  0  0
   -7.4060   -3.1590  -18.8510 O   0  0  0  0  0  0  0  0  0  0  0  0
   -8.9450   -4.3630  -16.9560 O   0  0  0  0  0  0  0  0  0  0  0  0
   -2.9230   -2.2830  -16.0700 C   0  0  0  0  0  0  0  0  0  0  0  0
   -7.6780   -2.4500  -17.6560 C   0  0  1  0  0  0  0  0  0  0  0  0
   -8.2670   -3.2520  -16.4500 C   0  0  0  0  0  0  0  0  0  0  0  0
   -4.4930   -0.5070  -20.2260 C   0  0  0  0  0  0  0  0  0  0  0  0
   -5.5650   -0.8730  -19.4440 C   0  0  0  0  0  0  0  0  0  0  0  0
   -6.2620   -1.9570  -17.3430 C   0  0  0  0  0  0  0  0  0  0  0  0
   -0.8000   -1.9040  -15.9640 O   0  0  0  0  0  0  0  0  0  0  0  0
   -5.3270   -1.4370  -18.2440 C   0  0  0  0  0  0  0  0  0  0  0  0
   -3.0920   -1.1440  -18.4690 C   0  0  0  0  0  0  0  0  0  0  0  0
   -7.7280   -3.6160  -15.1990 O   0  0  0  0  0  0  0  0  0  0  0  0
   -1.9060   -1.0170  -17.8170 C   0  0  0  0  0  0  0  0  0  0  0  0
   -6.8160   -0.6200  -19.8860 O   0  0  0  0  0  0  0  0  0  0  0  0
   -4.0570   -2.1950  -16.6540 C   0  0  0  0  0  0  0  0  0  0  0  0
   -5.5160   -2.6170  -15.9050 S   0  0  0  0  0  0  0  0  0  0  0  0
   -3.2030   -0.6420  -19.7840 C   0  0  0  0  0  0  0  0  0  0  0  0
   -1.8360   -1.7490  -16.6430 C   0  0  0  0  0  0  0  0  0  0  0  0
   -8.6530   -1.1700  -17.6550 C   0  0  0  0  0  0  0  0  0  0  0  0
  1 16  2  0
  2  5  1  0
  3  6  2  0
  5 20  1  6
  5  9  1  0
  5  6  1  0
  6 13  1  0
  7 18  1  0
  7  8  2  0
  8 11  1  0
  9 17  1  0
 11  1  1  0
 11  9  2  0
 12  1  1  0
 12 14  1  0
 14 19  1  0
 15  8  1  0
 16  4  1  0
 16 17  1  0
 18 12  2  0
 19  4  1  0
 19 10  2  0
M  END
$$$$

     RDKit          3D

 19 18  0  0  0  0  0  0  0  0999 V2000
   -1.5280   -3.5330  -17.1370 O   0  0  0  0  0  0  0  0  0  0  0  0
   -7.6460   -4.6650  -14.9380 O   0  0  0  0  0  0  0  0  0  0  0  0
   -7.7730   -2.8900  -16.3130 C   0  0  0  0  0  0  0  0  0  0  0  0
   -7.7720   -2.2220  -18.8570 O   0  0  0  0  0  0  0  0  0  0  0  0
   -2.9310   -2.7860  -15.4690 C   0  0  0  0  0  0  0  0  0  0  0  0
   -1.1440   -1.8660  -15.7790 O   0  0  0  0  0  0  0  0  0  0  0  0
   -6.6630   -2.1730  -18.3930 C   0  0  0  0  0  0  0  0  0  0  0  0
   -3.3480    0.2130  -20.8820 O   0  0  0  0  0  0  0  0  0  0  0  0
   -2.9440   -0.0230  -19.6960 C   0  0  0  0  0  0  0  0  0  0  0  0
   -4.4340   -1.3650  -18.3360 C   0  0  0  0  0  0  0  0  0  0  0  0
   -4.3320   -3.0410  -15.7490 N   0  0  0  0  0  0  0  0  0  0  0  0
   -6.5140   -2.5590  -17.0100 C   0  0  1  0  0  0  0  0  0  0  0  0
   -5.3390   -2.4830  -16.4400 C   0  0  0  0  0  0  0  0  0  0  0  0
   -1.7890   -2.7430  -16.2190 C   0  0  0  0  0  0  0  0  0  0  0  0
   -7.4490   -3.3050  -15.1110 N   0  0  0  0  0  0  0  0  0  0  0  0
   -3.2040   -1.1030  -18.8990 C   0  0  0  0  0  0  0  0  0  0  0  0
   -5.5570   -1.6040  -19.0010 C   0  0  0  0  0  0  0  0  0  0  0  0
   -2.0970    0.8900  -19.2360 O   0  0  0  0  0  0  0  0  0  0  0  0
   -8.9180   -2.9390  -16.6830 O   0  0  0  0  0  0  0  0  0  0  0  0
  1 14  2  0
  3 15  1  0
  4  7  2  0
 12  7  1  1
  8  9  2  0
  9 18  1  0
  9 16  1  0
 11  5  1  0
 12 13  1  0
 12  3  1  0
 13 11  2  3
 14  6  1  0
 14  5  1  0
 15  2  1  0
 16 10  1  0
 17  7  1  0
 17 10  2  3
 19  3  2  0
M  END
$$$$

     RDKit          3D

 21 24  0  0  0  0  0  0  0  0999 V2000
   -4.1890   -2.2730  -17.0150 N   0  0  0  0  0  0  0  0  0  0  0  0
   -1.9130   -2.1500  -17.9850 C   0  0  0  0  0  0  0  0  0  0  0  0
   -1.5090   -0.1770  -19.4070 C   0  0  1  0  0  0  0  0  0  0  0  0
   -3.9290   -2.9250  -15.8510 C   0  0  0  0  0  0  0  0  0  0  0  0
   -0.9140    0.1690  -18.0770 C   0  0  0  0  0  0  0  0  0  0  0  0
   -8.2800   -2.5160  -16.7950 C   0  0  0  0  0  0  0  0  0  0  0  0
   -5.0630   -3.2510  -15.2130 N   0  0  0  0  0  0  0  0  0  0  0  0
   -7.4400   -2.9660  -15.8710 N   0  0  0  0  0  0  0  0  0  0  0  0
   -5.5270   -2.2020  -17.1590 C   0  0  0  0  0  0  0  0  0  0  0  0
   -2.9700   -0.3250  -19.7320 C   0  0  0  0  0  0  0  0  0  0  0  0
   -6.1250   -2.8160  -16.0040 C   0  0  0  0  0  0  0  0  0  0  0  0
   -3.2210   -1.7950  -17.9240 C   0  0  2  0  0  0  0  0  0  0  0  0
   -0.6080   -0.6070  -20.6250 C   0  0  0  0  0  0  0  0  0  0  0  0
   -1.0100   -1.0830  -18.3450 C   0  0  1  0  0  0  0  0  0  0  0  0
   -3.5380   -0.1460  -20.7710 O   0  0  0  0  0  0  0  0  0  0  0  0
   -1.3800   -3.3520  -17.3340 C   0  0  0  0  0  0  0  0  0  0  0  0
   -7.7970   -1.8460  -17.9270 C   0  0  0  0  0  0  0  0  0  0  0  0
   -3.7050   -0.6540  -18.5800 O   0  0  0  0  0  0  0  0  0  0  0  0
   -6.3980   -1.6610  -18.1030 C   0  0  0  0  0  0  0  0  0  0  0  0
   -9.5420   -2.7980  -16.6470 O   0  0  0  0  0  0  0  0  0  0  0  0
    0.0300   -3.4320  -17.2870 O   0  0  0  0  0  0  0  0  0  0  0  0
  1  4  1  0
  2 12  1  0
  2 16  2  3
  3 13  1  6
  3 14  1  0
  3  5  1  0
  4  7  1  0
  6 20  2  0
  6  8  1  0
  9  1  1  0
  9 11  1  0
 10  3  1  0
 10 18  1  0
 11  8  1  0
 11  7  2  0
 12  1  1  1
 14  5  1  1
 14  2  1  0
 15 10  2  0
 16 21  1  0
 17  6  1  0
 18 12  1  0
 19 17  1  0
 19  9  2  0
M  END
$$$$

     RDKit          3D

 18 20  0  0  0  0  0  0  0  0999 V2000
   -6.3510   -2.2630  -16.9700 C   0  0  0  0  0  0  0  0  0  0  0  0
   -6.8050   -1.2760  -19.0430 C   0  0  0  0  0  0  0  0  0  0  0  0
   -1.9560   -1.0580  -18.5270 C   0  0  0  0  0  0  0  0  0  0  0  0
   -5.1190   -2.4320  -17.0860 C   0  0  0  0  0  0  0  0  0  0  0  0
   -2.9420   -1.8400  -17.7030 C   0  0  0  0  0  0  0  0  0  0  0  0
   -6.9010   -2.7100  -15.9700 C   0  0  0  0  0  0  0  0  0  0  0  0
   -2.6260   -2.5130  -16.4640 C   0  0  0  0  0  0  0  0  0  0  0  0
   -0.4440   -1.6090  -18.0640 C   0  0  0  0  0  0  0  0  0  0  0  0
   -3.9260   -0.5120  -19.8940 C   0  0  0  0  0  0  0  0  0  0  0  0
   -5.0800   -1.3190  -19.0760 C   0  0  0  0  0  0  0  0  0  0  0  0
   -7.0150   -1.5540  -18.1090 N   0  0  0  0  0  0  0  0  0  0  0  0
    0.8560   -3.0340  -16.5010 O   0  0  0  0  0  0  0  0  0  0  0  0
   -4.2580   -1.7420  -18.0520 C   0  0  0  0  0  0  0  0  0  0  0  0
   -1.3670   -2.6690  -15.9040 C   0  0  0  0  0  0  0  0  0  0  0  0
   -0.1930   -2.4230  -16.9010 C   0  0  0  0  0  0  0  0  0  0  0  0
   -7.6290   -3.2950  -15.4760 C   0  0  0  0  0  0  0  0  0  0  0  0
   -2.5370   -0.2250  -19.7380 C   0  0  0  0  0  0  0  0  0  0  0  0
   -6.8890   -0.7940  -20.1680 O   0  0  0  0  0  0  0  0  0  0  0  0
  1  6  1  0
  2 11  1  0
  3  8  1  0
  3  5  1  0
  4  1  1  0
  5  7  1  0
  6 16  2  0
  7 14  1  0
  8 15  1  0
  9 17  1  0
  9 10  2  0
 10  2  1  0
 10 13  1  0
 11  1  2  0
 13  5  2  0
 13  4  1  0
 15 12  2  0
 15 14  1  0
 17  3  2  0
 18  2  2  0
M  END
$$$$

     RDKit          3D

 15 16  0  0  0  0  0  0  0  0999 V2000
   -3.5190   -0.6280  -19.4880 C   0  0  0  0  0  0  0  0  0  0  0  0
   -8.8430   -2.0480  -16.8560 C   0  0  0  0  0  0  0  0  0  0  0  0
   -2.0700   -0.3040  -19.6440 C   0  0  0  0  0  0  0  0  0  0  0  0
   -1.4300   -0.8230  -18.4190 C   0  0  0  0  0  0  0  0  0  0  0  0
   -8.7970   -2.8240  -15.7800 N   0  0  0  0  0  0  0  0  0  0  0  0
   -6.7220   -2.4320  -16.7120 C   0  0  2  0  0  0  0  0  0  0  0  0
   -5.3780   -2.3800  -17.0930 C   0  0  0  0  0  0  0  0  0  0  0  0
   -3.6000   -0.6460  -17.9330 C   0  0  1  0  0  0  0  0  0  0  0  0
   -7.4150   -3.1880  -15.7440 C   0  0  0  0  0  0  0  0  0  0  0  0
   -4.6970   -3.3420  -17.0130 O   0  0  0  0  0  0  0  0  0  0  0  0
   -0.3780   -0.6440  -18.4610 O   0  0  0  0  0  0  0  0  0  0  0  0
   -7.7150   -1.7480  -17.4270 N   0  0  0  0  0  0  0  0  0  0  0  0
   -4.9280   -1.2230  -17.6840 N   0  0  0  0  0  0  0  0  0  0  0  0
   -2.4370   -1.5090  -17.5140 C   0  0  0  0  0  0  0  0  0  0  0  0
   -6.8660   -4.0650  -15.0920 O   0  0  0  0  0  0  0  0  0  0  0  0
  1  8  1  0
  2  5  1  0
  3  1  1  0
  3  4  1  0
  4 14  1  0
  5  9  1  0
  6  7  1  6
  6  9  1  0
  7 10  2  0
  8 13  1  6
  8 14  1  0
  9 15  2  0
 11  4  2  0
 12  2  2  0
 12  6  1  0
 13  7  1  0
M  END
$$$$

     RDKit          3D

 22 23  0  0  0  0  0  0  0  0999 V2000
   -8.0900   -2.5180  -16.6050 C   0  0  2  0  0  0  0  0  0  0  0  0
   -9.2440   -4.5300  -16.7300 O   0  0  0  0  0  0  0  0  0  0  0  0
   -0.8900   -3.0250  -17.1200 O   0  0  0  0  0  0  0  0  0  0  0  0
   -4.7610   -1.2550  -18.7040 C   0  0  0  0  0  0  0  0  0  0  0  0
   -2.0770   -2.9340  -16.6350 C   0  0  0  0  0  0  0  0  0  0  0  0
   -4.6330   -1.2550  -17.4180 C   0  0  0  0  0  0  0  0  0  0  0  0
   -7.6850   -4.4040  -15.2340 O   0  0  0  0  0  0  0  0  0  0  0  0
   -6.7980   -1.8380  -18.6200 C   0  0  0  0  0  0  0  0  0  0  0  0
   -1.8310    1.0100  -17.4960 O   0  0  0  0  0  0  0  0  0  0  0  0
   -0.0670   -0.7450  -18.7170 O   0  0  0  0  0  0  0  0  0  0  0  0
   -2.6840   -1.7150  -16.2130 O   0  0  0  0  0  0  0  0  0  0  0  0
   -2.7680   -3.9320  -16.5300 O   0  0  0  0  0  0  0  0  0  0  0  0
  -10.3020   -1.2910  -17.3160 N   0  0  0  0  0  0  0  0  0  0  0  0
   -8.3620   -3.8970  -16.1060 C   0  0  0  0  0  0  0  0  0  0  0  0
   -5.9080   -1.4590  -19.4830 C   0  0  0  0  0  0  0  0  0  0  0  0
   -9.2930   -1.8940  -17.0850 C   0  0  0  0  0  0  0  0  0  0  0  0
   -6.8690   -2.1310  -17.2760 C   0  0  0  0  0  0  0  0  0  0  0  0
   -5.7990   -1.8830  -16.6090 C   0  0  0  0  0  0  0  0  0  0  0  0
   -3.3820   -0.6810  -17.0420 C   0  0  1  0  0  0  0  0  0  0  0  0
   -2.3290   -0.1840  -18.0920 C   0  0  2  0  0  0  0  0  0  0  0  0
   -1.4540   -1.1910  -18.8300 C   0  0  1  0  0  0  0  0  0  0  0  0
   -2.6030   -0.2860  -19.7030 C   0  0  0  0  0  0  0  0  0  0  0  0
  1 16  1  6
  1 14  1  0
  2 14  2  0
  3  5  2  0
  4  6  2  0
  5 12  1  0
  5 11  1  0
  6 19  1  0
  6 18  1  0
  8 17  1  0
 13 16  3  0
 14  7  1  0
 15  4  1  0
 15  8  2  0
 17 18  2  0
 17  1  1  0
 19 11  1  6
 20  9  1  1
 20 19  1  0
 21 10  1  6
 21 20  1  0
 22 21  1  0
 22 20  1  0
M  END
$$$$

     RDKit          3D

 22 25  0  0  0  0  0  0  0  0999 V2000
   -8.6330   -1.0320  -17.4850 C   0  0  0  0  0  0  0  0  0  0  0  0
   -7.7020   -2.2390  -14.7320 O   0  0  0  0  0  0  0  0  0  0  0  0
   -7.3660   -4.4310  -15.3510 O   0  0  0  0  0  0  0  0  0  0  0  0
   -7.4890   -1.9220  -17.7920 C   0  0  2  0  0  0  0  0  0  0  0  0
   -2.9940   -0.3380  -18.0850 C   0  0  0  0  0  0  0  0  0  0  0  0
   -8.8890   -2.4370  -17.8710 C   0  0  1  0  0  0  0  0  0  0  0  0
   -6.8060   -2.6200  -16.8400 N   0  0  0  0  0  0  0  0  0  0  0  0
   -1.9960    0.6390  -18.0290 C   0  0  0  0  0  0  0  0  0  0  0  0
   -2.9350   -1.2460  -19.0700 C   0  0  0  0  0  0  0  0  0  0  0  0
   -9.1320   -3.4460  -16.7820 C   0  0  0  0  0  0  0  0  0  0  0  0
   -0.8460   -0.3800  -20.0220 C   0  0  0  0  0  0  0  0  0  0  0  0
   -4.0040   -0.6210  -17.0660 C   0  0  0  0  0  0  0  0  0  0  0  0
   -7.0330   -2.1530  -19.1750 C   0  0  0  0  0  0  0  0  0  0  0  0
   -5.5200   -2.6870  -16.5580 C   0  0  0  0  0  0  0  0  0  0  0  0
   -4.3630   -1.9940  -17.5170 C   0  0  2  0  0  0  0  0  0  0  0  0
   -6.6040   -0.8370  -19.8190 O   0  0  0  0  0  0  0  0  0  0  0  0
   -1.8220   -1.4500  -19.9300 C   0  0  0  0  0  0  0  0  0  0  0  0
   -7.7600   -3.2290  -15.7860 S   0  0  2  0  0  0  0  0  0  0  0  0
   -3.3110   -2.9490  -16.9700 C   0  0  0  0  0  0  0  0  0  0  0  0
    0.0520    1.7680  -19.2610 C   0  0  0  0  0  0  0  0  0  0  0  0
   -0.9480    0.6700  -19.1380 C   0  0  0  0  0  0  0  0  0  0  0  0
   -4.0170   -2.0460  -19.0290 C   0  0  0  0  0  0  0  0  0  0  0  0
  4 13  1  6
  4  1  1  0
  4  7  1  0
  5  8  2  0
  5 12  1  0
  6  4  1  0
  6  1  1  1
  6 10  1  0
  7 14  1  0
  7 18  1  0
  9 22  1  0
  9  5  1  0
 18 10  1  6
 11 17  1  0
 11 21  2  0
 15 12  1  0
 15 19  1  1
 15 14  1  0
 16 13  1  0
 17  9  2  0
 18  3  2  0
 18  2  2  0
 20 21  1  0
 21  8  1  0
 22 15  1  0
M  END
$$$$

     RDKit          3D

 21 22  0  0  0  0  0  0  0  0999 V2000
   -5.7140   -2.1400  -17.6370 C   0  0  0  0  0  0  0  0  0  0  0  0
   -8.6990   -1.9560  -16.9820 C   0  0  0  0  0  0  0  0  0  0  0  0
   -8.1140   -1.5560  -17.9810 C   0  0  0  0  0  0  0  0  0  0  0  0
   -2.1760   -0.3090  -19.9190 O   0  0  0  0  0  0  0  0  0  0  0  0
   -4.3500   -2.1510  -18.1670 C   0  0  2  0  0  0  0  0  0  0  0  0
   -3.5780   -3.2050  -17.2330 C   0  0  0  0  0  0  0  0  0  0  0  0
   -6.6810   -1.5860  -18.3770 C   0  0  0  0  0  0  0  0  0  0  0  0
   -6.3690   -1.0460  -19.5980 F   0  0  0  0  0  0  0  0  0  0  0  0
   -8.1920   -2.6330  -16.1650 N   0  0  0  0  0  0  0  0  0  0  0  0
   -1.9780   -0.9400  -17.2990 C   0  0  0  0  0  0  0  0  0  0  0  0
   -3.9730   -0.7110  -17.7100 C   0  0  0  0  0  0  0  0  0  0  0  0
   -6.0610   -2.7580  -16.2730 C   0  0  0  0  0  0  0  0  0  0  0  0
   -1.6760   -2.0000  -18.2820 N   0  0  0  0  0  0  0  0  0  0  0  0
   -8.9120   -0.8780  -18.7440 O   0  0  0  0  0  0  0  0  0  0  0  0
   -2.2250   -3.4690  -16.3950 C   0  0  2  0  0  0  0  0  0  0  0  0
   -7.1290   -4.0030  -14.8790 O   0  0  0  0  0  0  0  0  0  0  0  0
   -3.3610   -1.1220  -16.9530 O   0  0  0  0  0  0  0  0  0  0  0  0
   -1.7800   -2.9360  -15.4160 F   0  0  0  0  0  0  0  0  0  0  0  0
   -1.2660   -3.0110  -17.5630 C   0  0  0  0  0  0  0  0  0  0  0  0
   -7.2300   -3.1560  -15.7370 C   0  0  0  0  0  0  0  0  0  0  0  0
   -1.7330   -1.5760  -19.6570 C   0  0  0  0  0  0  0  0  0  0  0  0
  1 12  1  0
  2  9  2  0
  3  2  1  0
  4 21  1  0
  5 11  1  0
  5  1  1  1
  5  6  1  0
  6 15  1  0
  7  3  2  0
  7  1  1  0
  8  7  1  0
  9 20  1  0
 10 17  1  0
 11 17  1  0
 12 20  1  0
 13 19  1  0
 13 10  1  0
 14  3  1  0
 15 18  1  1
 19 15  1  0
 20 16  2  0
 21 13  1  0
M  END
$$$$

     RDKit          3D

 20 22  0  0  0  0  0  0  0  0999 V2000
   -7.2780   -2.0570  -17.5790 C   0  0  0  0  0  0  0  0  0  0  0  0
   -5.8420   -3.1900  -16.0010 N   0  0  0  0  0  0  0  0  0  0  0  0
   -7.0720   -3.4850  -15.2600 C   0  0  0  0  0  0  0  0  0  0  0  0
   -2.9240   -1.0590  -19.1550 C   0  0  0  0  0  0  0  0  0  0  0  0
   -3.1890   -0.5200  -20.2540 C   0  0  0  0  0  0  0  0  0  0  0  0
   -5.0710   -1.8750  -18.2410 C   0  0  0  0  0  0  0  0  0  0  0  0
   -5.8040   -1.2310  -19.2090 C   0  0  0  0  0  0  0  0  0  0  0  0
   -8.4470   -2.3230  -16.9340 C   0  0  0  0  0  0  0  0  0  0  0  0
   -0.8460   -0.5500  -19.7710 C   0  0  0  0  0  0  0  0  0  0  0  0
   -0.2360   -0.1150  -20.4250 C   0  0  0  0  0  0  0  0  0  0  0  0
   -8.3130   -3.0840  -15.6490 C   0  0  0  0  0  0  0  0  0  0  0  0
   -9.6450   -1.7910  -17.4090 O   0  0  0  0  0  0  0  0  0  0  0  0
   -1.5830   -1.1250  -18.8840 C   0  0  1  0  0  0  0  0  0  0  0  0
   -2.2430   -1.7660  -16.4710 C   0  0  0  0  0  0  0  0  0  0  0  0
   -7.2570   -1.4120  -18.9300 N   0  0  0  0  0  0  0  0  0  0  0  0
   -1.1300   -1.1040  -17.3860 C   0  0  0  0  0  0  0  0  0  0  0  0
   -3.6620   -1.8030  -18.3730 N   0  0  0  0  0  0  0  0  0  0  0  0
   -6.0160   -2.4280  -17.1940 C   0  0  0  0  0  0  0  0  0  0  0  0
   -2.9350   -2.6220  -17.6410 C   0  0  0  0  0  0  0  0  0  0  0  0
   -9.7130   -0.4190  -17.4660 C   0  0  0  0  0  0  0  0  0  0  0  0
  1 18  1  0
  1  8  1  0
  2  3  1  0
  4 13  1  0
  4 17  1  0
  5  4  2  0
  6 18  1  0
  7 15  1  0
  7  6  2  0
  8 11  2  0
 10  9  3  0
 11  3  1  0
 12  8  1  0
 13  9  1  6
 13 16  1  0
 15  1  2  0
 16 14  1  0
 17  6  1  0
 17 19  1  0
 18  2  2  0
 19 14  1  0
 20 12  1  0
M  END
$$$$

     RDKit          3D

 20 21  0  0  0  0  0  0  0  0999 V2000
   -3.6860   -2.7140  -15.4200 C   0  0  0  0  0  0  0  0  0  0  0  0
   -5.2760   -1.6120  -18.3900 C   0  0  0  0  0  0  0  0  0  0  0  0
   -8.7140   -1.3690  -18.1020 O   0  0  0  0  0  0  0  0  0  0  0  0
   -4.8280   -2.0710  -17.1950 C   0  0  0  0  0  0  0  0  0  0  0  0
   -6.5850   -1.9350  -18.7550 C   0  0  1  0  0  0  0  0  0  0  0  0
   -4.9550   -3.2190  -15.1480 O   0  0  0  0  0  0  0  0  0  0  0  0
   -6.5780   -2.9650  -19.5600 O   0  0  0  0  0  0  0  0  0  0  0  0
   -7.4260   -3.9660  -15.1390 O   0  0  0  0  0  0  0  0  0  0  0  0
   -5.5730   -2.7500  -16.2530 C   0  0  0  0  0  0  0  0  0  0  0  0
   -1.1650   -1.7730  -17.3230 N   0  0  0  0  0  0  0  0  0  0  0  0
   -0.7920   -1.0970  -19.4880 C   0  0  0  0  0  0  0  0  0  0  0  0
    0.0080   -0.1900  -19.2180 O   0  0  0  0  0  0  0  0  0  0  0  0
   -7.1370   -3.1770  -16.2600 C   0  0  2  0  0  0  0  0  0  0  0  0
   -7.9300   -1.9510  -16.3620 C   0  0  0  0  0  0  0  0  0  0  0  0
   -7.5180   -1.3160  -17.8060 C   0  0  2  0  0  0  0  0  0  0  0  0
   -1.5540   -0.9500  -20.5850 O   0  0  0  0  0  0  0  0  0  0  0  0
   -3.5500   -2.1650  -16.7010 C   0  0  0  0  0  0  0  0  0  0  0  0
   -2.6370   -0.7600  -17.9700 O   0  0  0  0  0  0  0  0  0  0  0  0
   -2.5370   -1.7310  -17.3670 C   0  0  0  0  0  0  0  0  0  0  0  0
   -0.5380   -2.1020  -18.5570 C   0  0  0  0  0  0  0  0  0  0  0  0
  1  6  1  0
  2  4  1  0
  4 17  1  0
  4  9  2  0
  5  7  1  1
  5  2  1  0
  5 15  1  0
  9  6  1  0
 11 12  1  0
 11 20  1  0
 13  9  1  0
 13  8  1  1
 14 13  1  0
 15  3  1  6
 15 14  1  0
 16 11  2  0
 17  1  2  0
 18 19  2  0
 19 10  1  0
 19 17  1  0
 20 10  1  0
M  END
$$$$

     RDKit          3D

 22 25  0  0  0  0  0  0  0  0999 V2000
   -0.9030   -0.4810  -19.2920 C   0  0  0  0  0  0  0  0  0  0  0  0
   -9.5890   -2.6550  -17.4900 C   0  0  0  0  0  0  0  0  0  0  0  0
   -7.2010   -1.9760  -17.1940 C   0  0  2  0  0  0  0  0  0  0  0  0
   -2.1930   -1.7950  -17.8330 C   0  0  1  0  0  0  0  0  0  0  0  0
   -8.5060   -0.5620  -17.7350 C   0  0  0  0  0  0  0  0  0  0  0  0
   -9.6750   -1.2090  -17.3840 N   0  0  0  0  0  0  0  0  0  0  0  0
   -8.1430   -3.0250  -16.9080 C   0  0  0  0  0  0  0  0  0  0  0  0
   -4.0770   -1.7020  -18.5950 C   0  0  0  0  0  0  0  0  0  0  0  0
   -0.2290    0.1520  -18.1690 N   0  0  0  0  0  0  0  0  0  0  0  0
   -0.5650   -0.2080  -16.7780 C   0  0  0  0  0  0  0  0  0  0  0  0
   -2.2860   -0.5990  -18.7080 C   0  0  2  0  0  0  0  0  0  0  0  0
  -10.9170   -0.3620  -17.4080 C   0  0  0  0  0  0  0  0  0  0  0  0
   -5.7040   -3.4830  -15.3290 O   0  0  0  0  0  0  0  0  0  0  0  0
    0.0020    0.3620  -15.6850 N   0  0  0  0  0  0  0  0  0  0  0  0
   -5.3140   -1.7520  -18.4450 N   0  0  0  0  0  0  0  0  0  0  0  0
   -1.4600   -1.3710  -16.5270 C   0  0  0  0  0  0  0  0  0  0  0  0
   -7.6150   -1.5140  -18.4300 O   0  0  0  0  0  0  0  0  0  0  0  0
   -5.7850   -2.3610  -17.3060 C   0  0  1  0  0  0  0  0  0  0  0  0
   -3.4510   -2.1620  -17.5590 N   0  0  0  0  0  0  0  0  0  0  0  0
   -3.8800   -2.6730  -16.4790 N   0  0  0  0  0  0  0  0  0  0  0  0
   -3.4120   -1.0960  -19.4400 N   0  0  0  0  0  0  0  0  0  0  0  0
   -5.1690   -2.8870  -16.3230 C   0  0  0  0  0  0  0  0  0  0  0  0
  1  9  1  0
  2  6  1  0
  2  7  1  0
  3  7  1  6
  4 19  1  0
  4 16  1  1
  5  6  1  0
  8 15  2  0
  8 19  1  0
  9 10  2  0
 10 16  1  0
 10 14  1  0
 11  1  1  6
 11  4  1  0
 12  6  1  0
 17  5  1  0
 17  3  1  0
 18 15  1  1
 18  3  1  0
 18 22  1  0
 19 20  1  0
 20 22  1  0
 21 11  1  0
 21  8  1  0
 22 13  2  0
M  END
$$$$

     RDKit          3D

 15 16  0  0  0  0  0  0  0  0999 V2000
   -6.7820   -3.2750  -15.7990 O   0  0  0  0  0  0  0  0  0  0  0  0
   -4.4670   -1.3660  -18.6480 C   0  0  0  0  0  0  0  0  0  0  0  0
   -3.9900   -2.0020  -17.5120 C   0  0  0  0  0  0  0  0  0  0  0  0
   -1.0580    0.0230  -16.2990 C   0  0  0  0  0  0  0  0  0  0  0  0
   -5.9170   -1.3560  -19.0400 C   0  0  0  0  0  0  0  0  0  0  0  0
   -6.6620   -2.0440  -18.1670 C   0  0  0  0  0  0  0  0  0  0  0  0
   -2.7420   -1.6460  -16.8830 C   0  0  1  0  0  0  0  0  0  0  0  0
   -0.4120   -2.4570  -16.8000 C   0  0  0  0  0  0  0  0  0  0  0  0
   -1.7320   -2.4940  -17.6390 C   0  0  1  0  0  0  0  0  0  0  0  0
   -3.6090   -0.8910  -19.5270 F   0  0  0  0  0  0  0  0  0  0  0  0
   -4.8300   -2.8760  -16.8250 C   0  0  0  0  0  0  0  0  0  0  0  0
   -6.1710   -2.7810  -17.0630 C   0  0  0  0  0  0  0  0  0  0  0  0
   -0.1840   -1.1560  -16.0630 N   0  0  0  0  0  0  0  0  0  0  0  0
   -2.2720   -0.2440  -17.1800 C   0  0  0  0  0  0  0  0  0  0  0  0
   -1.9650   -3.8530  -17.8740 O   0  0  0  0  0  0  0  0  0  0  0  0
  2  3  2  0
  3 11  1  0
  4 13  1  0
  5  2  1  0
  5  6  2  0
  6 12  1  0
  7  3  1  6
  8 13  1  0
  9 15  1  1
  9  7  1  0
  9  8  1  0
 10  2  1  0
 12 11  2  0
 12  1  1  0
 14  7  1  0
 14  4  1  0
M  END
$$$$

     RDKit          3D

 23 25  0  0  0  0  0  0  0  0999 V2000
   -0.7110   -1.6450  -16.5090 C   0  0  0  0  0  0  0  0  0  0  0  0
   -2.5360   -0.4310  -19.4150 C   0  0  0  0  0  0  0  0  0  0  0  0
   -9.6770   -1.8070  -17.8150 O   0  0  0  0  0  0  0  0  0  0  0  0
   -7.2760   -3.1240  -15.6810 C   0  0  1  0  0  0  0  0  0  0  0  0
   -8.4200   -2.1690  -16.1590 C   0  0  0  0  0  0  0  0  0  0  0  0
   -2.5760   -3.0770  -15.8400 C   0  0  0  0  0  0  0  0  0  0  0  0
   -1.2410   -1.1770  -17.5670 C   0  0  0  0  0  0  0  0  0  0  0  0
   -3.7600   -0.4140  -20.0600 C   0  0  0  0  0  0  0  0  0  0  0  0
   -8.3020   -1.6100  -17.5130 C   0  0  1  0  0  0  0  0  0  0  0  0
   -7.2570   -1.2680  -19.6040 O   0  0  0  0  0  0  0  0  0  0  0  0
   -5.9300   -2.2040  -17.8410 C   0  0  0  0  0  0  0  0  0  0  0  0
   -1.3860   -2.5740  -15.7420 C   0  0  0  0  0  0  0  0  0  0  0  0
    0.5380   -1.1180  -16.1260 O   0  0  0  0  0  0  0  0  0  0  0  0
   -7.3120   -2.0530  -18.4890 C   0  0  1  0  0  0  0  0  0  0  0  0
   -8.1650   -0.0680  -17.2710 C   0  0  0  0  0  0  0  0  0  0  0  0
   -3.5590   -1.8790  -17.8040 C   0  0  0  0  0  0  0  0  0  0  0  0
   -5.8820   -2.7390  -16.4050 C   0  0  0  0  0  0  0  0  0  0  0  0
   -4.7560   -1.0150  -19.6200 C   0  0  0  0  0  0  0  0  0  0  0  0
   -3.4640   -2.7090  -16.7630 C   0  0  0  0  0  0  0  0  0  0  0  0
   -4.7570   -1.7080  -18.4150 C   0  0  0  0  0  0  0  0  0  0  0  0
   -7.1540   -3.2460  -14.3120 O   0  0  0  0  0  0  0  0  0  0  0  0
   -2.4320   -1.1970  -18.2360 C   0  0  0  0  0  0  0  0  0  0  0  0
   -7.6430   -4.3190  -15.7290 O   0  0  0  0  0  0  0  0  0  0  0  0
  1 13  1  0
  1 12  1  0
  2 22  2  0
  3  9  1  0
  4 21  1  1
  5  4  1  0
  6 12  2  0
  7  1  2  0
  8 18  2  0
  8  2  1  0
  9 15  1  1
  9  5  1  0
 11 17  1  0
 14 10  1  6
 14 11  1  0
 14  9  1  0
 16 19  2  0
 17  4  1  0
 18 20  1  0
 19  6  1  0
 20 11  2  3
 20 16  1  0
 22 16  1  0
 22  7  1  0
 23  4  1  0
M  END
$$$$

     RDKit          3D

 19 20  0  0  0  0  0  0  0  0999 V2000
   -5.8300   -2.8350  -15.8080 C   0  0  0  0  0  0  0  0  0  0  0  0
   -6.9480   -2.9020  -15.2730 O   0  0  0  0  0  0  0  0  0  0  0  0
   -0.1100   -0.7410  -17.0150 C   0  0  0  0  0  0  0  0  0  0  0  0
   -4.8600   -1.5640  -19.0690 N   0  0  0  0  0  0  0  0  0  0  0  0
   -8.9320   -2.7780  -17.8130 O   0  0  0  0  0  0  0  0  0  0  0  0
   -8.2330   -1.7540  -17.8260 C   0  0  0  0  0  0  0  0  0  0  0  0
   -2.3670   -3.0010  -16.7850 C   0  0  0  0  0  0  0  0  0  0  0  0
   -6.7390   -1.8900  -18.0710 C   0  0  0  0  0  0  0  0  0  0  0  0
   -1.2490   -0.3190  -17.8970 C   0  0  0  0  0  0  0  0  0  0  0  0
   -8.7540   -0.6560  -17.6900 O   0  0  0  0  0  0  0  0  0  0  0  0
   -5.7420   -2.2370  -17.1490 C   0  0  0  0  0  0  0  0  0  0  0  0
   -1.0420   -2.9910  -15.9250 C   0  0  2  0  0  0  0  0  0  0  0  0
   -2.5300   -0.7860  -17.2290 C   0  0  0  0  0  0  0  0  0  0  0  0
   -1.2040   -2.4310  -14.6570 O   0  0  0  0  0  0  0  0  0  0  0  0
   -3.1770   -1.9990  -17.2030 C   0  0  1  0  0  0  0  0  0  0  0  0
   -6.1470   -1.5600  -19.2550 N   0  0  0  0  0  0  0  0  0  0  0  0
   -4.5150   -1.9620  -17.8160 C   0  0  2  0  0  0  0  0  0  0  0  0
    0.1030   -2.3220  -16.7550 C   0  0  0  0  0  0  0  0  0  0  0  0
   -4.6960   -3.2140  -15.3200 O   0  0  0  0  0  0  0  0  0  0  0  0
  1 19  2  0
  1  2  1  0
  3 18  1  0
  6  5  2  0
  6 10  1  0
  7 12  1  0
  8  6  1  0
  8 11  2  0
  9 13  1  0
  9  3  1  0
 11  1  1  0
 12 14  1  1
 15 13  1  6
 15  7  1  0
 16  4  2  0
 16  8  1  0
 17  4  1  1
 17 15  1  0
 17 11  1  0
 18 12  1  0
M  END
$$$$

     RDKit          3D

 22 23  0  0  0  0  0  0  0  0999 V2000
    0.1360   -1.6370  -19.3970 C   0  0  0  0  0  0  0  0  0  0  0  0
   -6.2660   -2.8360  -16.3390 C   0  0  0  0  0  0  0  0  0  0  0  0
   -1.9300    0.5040  -18.2740 C   0  0  0  0  0  0  0  0  0  0  0  0
   -1.2320   -1.2830  -19.6750 C   0  0  0  0  0  0  0  0  0  0  0  0
   -7.4600   -3.7180  -15.8270 C   0  0  0  0  0  0  0  0  0  0  0  0
   -3.3780   -0.7140  -19.7560 O   0  0  0  0  0  0  0  0  0  0  0  0
   -1.9790   -2.2070  -16.8600 C   0  0  0  0  0  0  0  0  0  0  0  0
   -7.2690   -4.4300  -14.8610 O   0  0  0  0  0  0  0  0  0  0  0  0
   -0.8160   -3.5790  -18.4520 C   0  0  0  0  0  0  0  0  0  0  0  0
   -0.6850   -2.1590  -17.2290 C   0  0  1  0  0  0  0  0  0  0  0  0
   -8.5470   -3.9500  -16.3070 O   0  0  0  0  0  0  0  0  0  0  0  0
   -4.3570   -1.8830  -17.1990 C   0  0  0  0  0  0  0  0  0  0  0  0
   -6.5480   -1.8040  -17.2620 C   0  0  0  0  0  0  0  0  0  0  0  0
   -2.9940   -1.7020  -17.6810 C   0  0  0  0  0  0  0  0  0  0  0  0
   -9.0630   -1.3910  -17.0500 C   0  0  1  0  0  0  0  0  0  0  0  0
   -9.6980    0.0440  -17.6180 N   0  0  0  0  0  0  0  0  0  0  0  0
   -2.3870   -0.8940  -18.9500 C   0  0  2  0  0  0  0  0  0  0  0  0
    0.2220   -1.5110  -17.9070 C   0  0  0  0  0  0  0  0  0  0  0  0
  -10.2200   -2.3540  -17.3970 C   0  0  0  0  0  0  0  0  0  0  0  0
   -7.9510   -1.7900  -17.8970 C   0  0  0  0  0  0  0  0  0  0  0  0
   -4.9270   -2.8120  -16.3260 C   0  0  0  0  0  0  0  0  0  0  0  0
   -5.3700   -1.3130  -17.7880 O   0  0  0  0  0  0  0  0  0  0  0  0
  1 18  1  0
  2 21  1  0
  2  5  1  0
  4  1  1  0
  4 17  1  0
  5  8  1  0
  6 17  1  0
 10  9  1  6
 10  7  1  0
 11  5  2  0
 12 21  2  0
 13  2  2  0
 14 12  1  0
 14  7  2  0
 15 19  1  6
 16 15  1  0
 17  3  1  1
 17 14  1  0
 18 10  1  0
 20 13  1  0
 20 15  1  0
 22 13  1  0
 22 12  1  0
M  END
$$$$

     RDKit          3D

 21 22  0  0  0  0  0  0  0  0999 V2000
   -9.5170   -0.9490  -16.9900 C   0  0  0  0  0  0  0  0  0  0  0  0
   -4.2520   -1.0420  -19.1160 O   0  0  0  0  0  0  0  0  0  0  0  0
   -4.7570   -2.2700  -17.4280 C   0  0  2  0  0  0  0  0  0  0  0  0
   -3.0650   -0.6660  -18.2790 C   0  0  1  0  0  0  0  0  0  0  0  0
   -2.3390   -2.4070  -16.5280 O   0  0  0  0  0  0  0  0  0  0  0  0
   -3.2370   -1.7910  -17.3480 C   0  0  0  0  0  0  0  0  0  0  0  0
   -6.5920   -2.6130  -19.7900 F   0  0  0  0  0  0  0  0  0  0  0  0
    0.3960   -0.5480  -19.4330 C   0  0  0  0  0  0  0  0  0  0  0  0
    0.0850   -0.9150  -17.1820 O   0  0  0  0  0  0  0  0  0  0  0  0
   -7.7020   -2.1210  -17.7600 C   0  0  2  0  0  0  0  0  0  0  0  0
   -0.8620   -2.7250  -19.1670 C   0  0  0  0  0  0  0  0  0  0  0  0
    1.0320   -0.6320  -18.2760 C   0  0  0  0  0  0  0  0  0  0  0  0
   -6.7590   -1.6510  -18.8520 C   0  0  1  0  0  0  0  0  0  0  0  0
   -5.1310   -1.6050  -18.4460 C   0  0  2  0  0  0  0  0  0  0  0  0
   -5.7690   -2.3260  -16.2860 C   0  0  0  0  0  0  0  0  0  0  0  0
   -1.9220   -0.4430  -18.9450 O   0  0  0  0  0  0  0  0  0  0  0  0
   -7.7160   -4.4950  -15.0180 O   0  0  0  0  0  0  0  0  0  0  0  0
   -0.9070   -1.2520  -19.6790 C   0  0  1  0  0  0  0  0  0  0  0  0
   -7.9570   -3.4230  -15.6390 C   0  0  0  0  0  0  0  0  0  0  0  0
   -9.0400   -1.8100  -18.1030 O   0  0  0  0  0  0  0  0  0  0  0  0
   -7.1030   -2.7670  -16.4620 C   0  0  1  0  0  0  0  0  0  0  0  0
  2  4  1  0
  3  6  1  0
  3 15  1  1
  4 16  1  6
  4  6  1  0
  6  5  1  0
  8 12  1  0
 10 20  1  1
 10 21  1  0
 12  9  1  0
 13  7  1  6
 13 14  1  0
 13 10  1  0
 14  2  1  6
 14  3  1  0
 18  8  1  0
 18 11  1  1
 18 16  1  0
 19 17  2  0
 20  1  1  0
 21 15  1  0
 21 19  1  1
M  END
$$$$

     RDKit          3D

 19 20  0  0  0  0  0  0  0  0999 V2000
   -1.6040   -0.8420  -20.3020 C   0  0  0  0  0  0  0  0  0  0  0  0
   -0.5080    0.2030  -18.7640 C   0  0  0  0  0  0  0  0  0  0  0  0
   -7.6710   -1.2010  -18.9220 C   0  0  0  0  0  0  0  0  0  0  0  0
   -1.1110   -0.6990  -17.6920 C   0  0  0  0  0  0  0  0  0  0  0  0
   -7.8180   -2.7020  -17.0230 C   0  0  0  0  0  0  0  0  0  0  0  0
   -0.3730   -0.3760  -19.9310 C   0  0  0  0  0  0  0  0  0  0  0  0
   -9.7150   -1.3960  -17.8700 F   0  0  0  0  0  0  0  0  0  0  0  0
   -8.4450   -1.7730  -17.9790 C   0  0  1  0  0  0  0  0  0  0  0  0
   -3.2840   -1.6090  -17.0590 C   0  0  0  0  0  0  0  0  0  0  0  0
   -2.4910   -1.4710  -19.3760 C   0  0  0  0  0  0  0  0  0  0  0  0
   -6.4790   -2.5680  -16.7200 N   0  0  0  0  0  0  0  0  0  0  0  0
   -9.6400   -4.1680  -17.1790 O   0  0  0  0  0  0  0  0  0  0  0  0
   -2.3140   -1.2260  -18.0010 C   0  0  2  0  0  0  0  0  0  0  0  0
   -6.2670   -1.2480  -18.7010 C   0  0  0  0  0  0  0  0  0  0  0  0
   -8.6770   -3.7100  -16.5320 C   0  0  0  0  0  0  0  0  0  0  0  0
   -4.5510   -1.2530  -17.0470 N   0  0  0  0  0  0  0  0  0  0  0  0
   -8.3010   -4.2790  -15.4040 O   0  0  0  0  0  0  0  0  0  0  0  0
   -5.7720   -1.7020  -17.4790 C   0  0  0  0  0  0  0  0  0  0  0  0
   -2.9080   -2.4500  -16.1980 N   0  0  0  0  0  0  0  0  0  0  0  0
  1  6  1  0
  1 10  1  0
  2  4  1  0
  3 14  2  0
  3  8  1  0
  5 11  1  0
  5 15  1  0
  6  2  1  0
  8  7  1  1
  8  5  1  0
  9 16  1  0
  9 19  2  0
 10 13  1  0
 12 15  2  0
 13  4  1  0
 13  9  1  1
 14 18  1  0
 15 17  1  0
 18 16  1  0
 18 11  2  0
M  END
$$$$

     RDKit          3D

 19 21  0  0  0  0  0  0  0  0999 V2000
   -4.1860   -2.9820  -16.3020 C   0  0  0  0  0  0  0  0  0  0  0  0
   -5.7990   -1.5130  -17.9840 C   0  0  0  0  0  0  0  0  0  0  0  0
    0.1590    0.1400  -20.3090 O   0  0  0  0  0  0  0  0  0  0  0  0
   -9.4160   -3.4090  -16.8490 F   0  0  0  0  0  0  0  0  0  0  0  0
   -3.2870   -1.4560  -18.1520 C   0  0  0  0  0  0  0  0  0  0  0  0
   -4.6420   -1.1260  -18.6780 C   0  0  0  0  0  0  0  0  0  0  0  0
    0.0940    0.5390  -18.8040 C   0  0  0  0  0  0  0  0  0  0  0  0
   -8.3950   -2.6730  -17.0090 C   0  0  0  0  0  0  0  0  0  0  0  0
   -0.6510   -0.7070  -18.2040 C   0  0  0  0  0  0  0  0  0  0  0  0
   -7.1450   -0.9230  -18.3830 C   0  0  0  0  0  0  0  0  0  0  0  0
   -1.4960   -1.7440  -19.7450 C   0  0  0  0  0  0  0  0  0  0  0  0
   -3.0480   -2.0450  -16.8410 C   0  0  0  0  0  0  0  0  0  0  0  0
   -8.3500   -1.3440  -17.9220 C   0  0  0  0  0  0  0  0  0  0  0  0
   -1.9190   -1.7670  -16.1890 O   0  0  0  0  0  0  0  0  0  0  0  0
   -7.1850   -3.0580  -16.4550 C   0  0  0  0  0  0  0  0  0  0  0  0
   -5.7330   -2.6160  -16.8120 C   0  0  0  0  0  0  0  0  0  0  0  0
   -0.7390   -0.9440  -20.8830 C   0  0  0  0  0  0  0  0  0  0  0  0
   -1.7970   -1.2230  -18.6390 N   0  0  0  0  0  0  0  0  0  0  0  0
   -7.5600   -3.9140  -15.2630 Cl  0  0  0  0  0  0  0  0  0  0  0  0
  2 16  2  0
  3  7  1  0
  5 12  1  0
  6  5  2  0
  6  2  1  0
  7  9  1  0
  8  4  1  0
  8 15  2  0
 10  2  1  0
 10 13  2  0
 11 18  1  0
 12  1  2  0
 12 14  1  0
 13  8  1  0
 15 19  1  0
 16 15  1  0
 16  1  1  0
 17  3  1  0
 17 11  1  0
 18  9  1  0
 18  5  1  0
M  END
$$$$

     RDKit          3D

 21 24  0  0  0  0  0  0  0  0999 V2000
   -5.1410   -3.6050  -15.2160 O   0  0  0  0  0  0  0  0  0  0  0  0
   -4.0310   -0.6210  -19.8540 C   0  0  0  0  0  0  0  0  0  0  0  0
   -2.1770   -0.0230  -18.7920 C   0  0  0  0  0  0  0  0  0  0  0  0
   -4.3890   -1.1570  -18.9270 C   0  0  0  0  0  0  0  0  0  0  0  0
   -5.5900   -1.3480  -19.0010 O   0  0  0  0  0  0  0  0  0  0  0  0
   -3.7540   -1.3290  -17.5780 C   0  0  1  0  0  0  0  0  0  0  0  0
   -7.6590   -1.9210  -17.7910 C   0  0  0  0  0  0  0  0  0  0  0  0
   -8.2900   -2.4620  -16.7400 C   0  0  0  0  0  0  0  0  0  0  0  0
   -5.5710   -2.4630  -16.7850 C   0  0  0  0  0  0  0  0  0  0  0  0
   -7.5250   -3.2390  -15.7160 C   0  0  0  0  0  0  0  0  0  0  0  0
   -2.4660   -3.8050  -17.4890 C   0  0  0  0  0  0  0  0  0  0  0  0
   -2.5840   -2.1630  -17.0220 C   0  0  1  0  0  0  0  0  0  0  0  0
   -2.2700   -1.1310  -17.9240 C   0  0  1  0  0  0  0  0  0  0  0  0
   -1.8950   -1.3860  -18.8550 C   0  0  2  0  0  0  0  0  0  0  0  0
   -1.6440    0.5820  -18.2800 O   0  0  0  0  0  0  0  0  0  0  0  0
   -0.9450   -1.8360  -18.1930 O   0  0  0  0  0  0  0  0  0  0  0  0
   -4.0280   -2.2890  -16.5090 C   0  0  1  0  0  0  0  0  0  0  0  0
   -4.8300   -0.2410  -20.9080 O   0  0  0  0  0  0  0  0  0  0  0  0
   -6.3930   -1.7630  -17.9630 C   0  0  0  0  0  0  0  0  0  0  0  0
   -6.1860   -2.9990  -15.8710 C   0  0  0  0  0  0  0  0  0  0  0  0
   -2.7620    0.0430  -20.1710 C   0  0  0  0  0  0  0  0  0  0  0  0
  2  4  2  3
  3 15  2  0
  5  4  1  0
  5 19  1  0
  6  4  1  6
  6 12  1  0
  6 17  1  0
  7  8  1  0
  8 10  2  0
  9 20  2  0
 12 11  1  6
 12 17  1  0
 13 14  1  6
 13  6  1  0
 13 12  1  0
 14  3  1  0
 14 16  1  1
 17  9  1  6
 18  2  1  0
 19  7  2  0
 19  9  1  0
 20 10  1  0
 20  1  1  0
 21  2  1  0
M  END
$$$$

     RDKit          3D

 22 24  0  0  0  0  0  0  0  0999 V2000
   -1.1720   -3.1740  -18.0830 C   0  0  0  0  0  0  0  0  0  0  0  0
   -6.4750   -2.0770  -17.6060 N   0  0  0  0  0  0  0  0  0  0  0  0
   -6.7740   -0.9000  -19.8390 C   0  0  0  0  0  0  0  0  0  0  0  0
   -8.4470   -3.6900  -18.7580 C   0  0  0  0  0  0  0  0  0  0  0  0
   -3.6430   -3.2120  -15.6600 S   0  0  0  0  0  0  0  0  0  0  0  0
   -4.4160   -2.0070  -17.6980 N   0  0  0  0  0  0  0  0  0  0  0  0
   -9.7990   -0.0250  -17.5570 N   0  0  0  0  0  0  0  0  0  0  0  0
    0.5730   -1.4810  -18.7440 N   0  0  0  0  0  0  0  0  0  0  0  0
   -1.9590   -2.1060  -17.7740 C   0  0  1  0  0  0  0  0  0  0  0  0
   -7.6890   -3.1980  -15.5010 S   0  0  0  0  0  0  0  0  0  0  0  0
   -7.6330   -2.4250  -16.8440 C   0  0  0  0  0  0  0  0  0  0  0  0
   -5.3840   -2.4580  -16.9270 C   0  0  0  0  0  0  0  0  0  0  0  0
   -0.4960   -2.5720  -19.3590 C   0  0  0  0  0  0  0  0  0  0  0  0
   -9.4020   -3.4390  -17.3500 C   0  0  0  0  0  0  0  0  0  0  0  0
   -8.7320   -2.3890  -17.4550 C   0  0  1  0  0  0  0  0  0  0  0  0
   -4.6090   -1.2580  -18.8620 N   0  0  0  0  0  0  0  0  0  0  0  0
   -5.2520   -3.0450  -15.8060 N   0  0  0  0  0  0  0  0  0  0  0  0
   -0.1700   -0.4870  -17.6630 C   0  0  0  0  0  0  0  0  0  0  0  0
   -3.3150   -2.4990  -17.1760 C   0  0  1  0  0  0  0  0  0  0  0  0
   -1.2810   -0.6650  -17.2690 C   0  0  0  0  0  0  0  0  0  0  0  0
   -5.9310   -1.4470  -18.7460 C   0  0  0  0  0  0  0  0  0  0  0  0
   -9.6760   -1.2180  -16.5190 C   0  0  0  0  0  0  0  0  0  0  0  0
  9  1  1  1
  2 12  1  0
  2 11  1  0
  3 21  1  0
  4 14  1  0
  6 19  1  0
  6 12  1  0
  7 22  1  0
  8 18  1  0
  9 20  1  0
 11 10  2  0
 12 17  2  0
 13  8  1  0
 13  1  1  0
 15 14  1  1
 15 11  1  0
 15 22  1  0
 16 21  2  0
 16  6  1  0
 17  5  1  0
 18 20  1  0
 19  9  1  0
 19  5  1  1
 21  2  1  0
M  END
$$$$

     RDKit          3D

 21 24  0  0  0  0  0  0  0  0999 V2000
   -1.0580   -1.1620  -19.6710 C   0  0  1  0  0  0  0  0  0  0  0  0
   -4.1370   -2.1380  -17.1170 C   0  0  1  0  0  0  0  0  0  0  0  0
   -7.2050   -1.6770  -17.2550 C   0  0  0  0  0  0  0  0  0  0  0  0
   -3.6930   -3.0760  -16.1040 C   0  0  0  0  0  0  0  0  0  0  0  0
   -7.7990   -3.7040  -16.0070 C   0  0  0  0  0  0  0  0  0  0  0  0
   -4.7390   -1.6670  -18.3430 C   0  0  2  0  0  0  0  0  0  0  0  0
   -5.7010   -1.9680  -17.2100 C   0  0  1  0  0  0  0  0  0  0  0  0
   -1.9720   -1.3430  -17.5050 C   0  0  0  0  0  0  0  0  0  0  0  0
   -8.0050   -2.9200  -17.4850 C   0  0  1  0  0  0  0  0  0  0  0  0
   -7.5610   -0.4170  -17.6350 C   0  0  0  0  0  0  0  0  0  0  0  0
   -1.2660   -0.5770  -18.3410 N   0  0  0  0  0  0  0  0  0  0  0  0
   -3.3440   -1.3110  -17.6370 C   0  0  2  0  0  0  0  0  0  0  0  0
   -4.9320   -1.2530  -19.4710 O   0  0  0  0  0  0  0  0  0  0  0  0
   -2.2570   -3.0580  -15.7030 C   0  0  0  0  0  0  0  0  0  0  0  0
  -10.1390   -1.6450  -17.3950 O   0  0  0  0  0  0  0  0  0  0  0  0
   -1.7220   -0.5670  -20.7060 C   0  0  0  0  0  0  0  0  0  0  0  0
   -9.5270   -2.7530  -17.4600 C   0  0  0  0  0  0  0  0  0  0  0  0
   -0.1410   -0.4290  -20.5000 C   0  0  0  0  0  0  0  0  0  0  0  0
   -1.4700   -2.0980  -16.4860 C   0  0  0  0  0  0  0  0  0  0  0  0
   -8.7330   -4.5020  -15.6770 O   0  0  0  0  0  0  0  0  0  0  0  0
   -6.7490   -3.6200  -15.3420 O   0  0  0  0  0  0  0  0  0  0  0  0
  1 11  1  1
  2  4  1  6
  4 14  2  0
  5 20  2  0
  5 21  1  0
  6 13  1  6
  6 12  1  0
  6  7  1  0
  6  2  1  0
  7  3  1  1
  7  2  1  0
  8 19  2  0
  9 17  1  1
  9  3  1  0
  9  5  1  0
 10  3  2  0
 11  8  1  0
 12  8  1  6
 12  2  1  0
 16 18  1  0
 16  1  1  0
 17 15  2  0
 18  1  1  0
 19 14  1  0
M  END
$$$$

     RDKit          3D

 21 23  0  0  0  0  0  0  0  0999 V2000
   -6.3520   -2.8670  -16.0480 C   0  0  0  0  0  0  0  0  0  0  0  0
   -0.2560    0.2780  -19.2510 C   0  0  0  0  0  0  0  0  0  0  0  0
   -1.4040    1.0460  -19.2940 C   0  0  0  0  0  0  0  0  0  0  0  0
   -0.3430   -1.0480  -18.7930 C   0  0  0  0  0  0  0  0  0  0  0  0
   -5.1020   -3.2540  -17.5460 C   0  0  0  0  0  0  0  0  0  0  0  0
   -2.7370   -0.8290  -18.6350 C   0  0  0  0  0  0  0  0  0  0  0  0
   -2.6220    0.4630  -19.1940 C   0  0  0  0  0  0  0  0  0  0  0  0
   -8.5120   -3.4450  -16.4950 N   0  0  0  0  0  0  0  0  0  0  0  0
   -8.9920   -2.1490  -16.7730 C   0  0  0  0  0  0  0  0  0  0  0  0
   -7.4930   -3.6190  -15.6150 C   0  0  0  0  0  0  0  0  0  0  0  0
   -1.5820   -1.4330  -18.3010 C   0  0  0  0  0  0  0  0  0  0  0  0
   -7.0140   -2.0840  -18.0890 C   0  0  0  0  0  0  0  0  0  0  0  0
    1.3510    1.0490  -19.4450 Cl  0  0  0  0  0  0  0  0  0  0  0  0
   -7.3950   -4.5460  -14.9480 O   0  0  0  0  0  0  0  0  0  0  0  0
   -2.9340   -2.8580  -16.7650 C   0  0  0  0  0  0  0  0  0  0  0  0
   -5.9600   -2.1280  -17.0600 C   0  0  1  0  0  0  0  0  0  0  0  0
   -3.9840   -2.4550  -17.6690 N   0  0  0  0  0  0  0  0  0  0  0  0
   -3.8980   -1.4760  -18.5230 C   0  0  0  0  0  0  0  0  0  0  0  0
   -4.8870   -1.1230  -19.2780 O   0  0  0  0  0  0  0  0  0  0  0  0
   -8.2290   -1.4270  -17.8110 C   0  0  0  0  0  0  0  0  0  0  0  0
   -1.6330   -2.6920  -17.5030 C   0  0  0  0  0  0  0  0  0  0  0  0
  1 10  1  0
  2  4  2  0
  3  2  1  0
  3  7  2  0
  4 11  1  0
  6 18  1  0
  6 11  2  0
  7  6  1  0
  8 10  1  0
  9  8  1  0
 10 14  2  0
 11 21  1  0
 12 20  1  0
 12 16  1  0
 13  2  1  0
 16  5  1  6
 16  1  1  0
 17  5  1  0
 17 15  1  0
 18 17  1  0
 19 18  2  0
 20  9  1  0
 21 15  1  0
M  END
$$$$

     RDKit          3D

 20 21  0  0  0  0  0  0  0  0999 V2000
   -3.9980   -2.2670  -17.6480 C   0  0  0  0  0  0  0  0  0  0  0  0
   -2.5500   -2.3140  -17.6290 C   0  0  0  0  0  0  0  0  0  0  0  0
   -4.0350   -0.5800  -19.3300 C   0  0  0  0  0  0  0  0  0  0  0  0
   -2.6410   -3.4930  -15.9160 C   0  0  0  0  0  0  0  0  0  0  0  0
   -1.8590   -1.3950  -18.4810 C   0  0  0  0  0  0  0  0  0  0  0  0
   -7.0550   -1.7190  -17.3150 C   0  0  0  0  0  0  0  0  0  0  0  0
   -6.4800   -0.9960  -19.7400 O   0  0  0  0  0  0  0  0  0  0  0  0
   -6.2710   -1.8320  -18.7660 S   0  0  2  0  0  0  0  0  0  0  0  0
   -6.3830   -3.1540  -19.3820 O   0  0  0  0  0  0  0  0  0  0  0  0
   -4.7610   -1.2070  -18.5240 C   0  0  0  0  0  0  0  0  0  0  0  0
   -7.3780   -3.5340  -15.4970 C   0  0  0  0  0  0  0  0  0  0  0  0
   -7.9720   -2.6110  -16.5690 C   0  0  0  0  0  0  0  0  0  0  0  0
   -1.6120    0.6240  -19.7310 C   0  0  0  0  0  0  0  0  0  0  0  0
   -9.1870   -2.5560  -16.8520 N   0  0  0  0  0  0  0  0  0  0  0  0
   -0.2610   -0.1780  -19.5440 C   0  0  0  0  0  0  0  0  0  0  0  0
   -6.0060   -3.4560  -15.2750 O   0  0  0  0  0  0  0  0  0  0  0  0
   -1.7890   -3.1410  -16.8490 O   0  0  0  0  0  0  0  0  0  0  0  0
   -8.1050   -4.4400  -14.8520 O   0  0  0  0  0  0  0  0  0  0  0  0
   -0.5200   -1.1510  -18.5920 N   0  0  0  0  0  0  0  0  0  0  0  0
   -2.5660   -0.3770  -19.1720 C   0  0  0  0  0  0  0  0  0  0  0  0
  1  2  2  0
  2 17  1  0
  3 20  1  0
  3 10  2  0
  5  2  1  0
  6 12  1  0
  7  8  2  0
  8 10  1  0
  8  6  1  1
  9  8  2  0
 10  1  1  0
 11 16  2  0
 11 18  1  0
 12 11  1  0
 13 15  1  0
 13 20  1  0
 14 12  2  0
 15 19  1  0
 17  4  1  0
 19  5  1  0
 20  5  2  0
M  END
$$$$

     RDKit          3D

 22 24  0  0  0  0  0  0  0  0999 V2000
   -1.0020   -1.9440  -17.7120 C   0  0  0  0  0  0  0  0  0  0  0  0
   -1.1340   -3.1350  -16.8990 C   0  0  0  0  0  0  0  0  0  0  0  0
   -3.1920   -2.2060  -17.2540 C   0  0  0  0  0  0  0  0  0  0  0  0
    0.0960   -1.4840  -18.1300 O   0  0  0  0  0  0  0  0  0  0  0  0
   -5.2220   -0.9950  -19.3140 N   0  0  0  0  0  0  0  0  0  0  0  0
   -2.3720   -0.0270  -20.1510 C   0  0  0  0  0  0  0  0  0  0  0  0
   -6.5590   -1.2170  -18.8750 C   0  0  1  0  0  0  0  0  0  0  0  0
   -9.1780   -1.4270  -16.8230 C   0  0  0  0  0  0  0  0  0  0  0  0
   -6.8290   -1.7350  -17.5390 C   0  0  1  0  0  0  0  0  0  0  0  0
   -8.9220   -4.4870  -16.1450 O   0  0  0  0  0  0  0  0  0  0  0  0
  -10.4140   -1.5560  -17.5140 O   0  0  0  0  0  0  0  0  0  0  0  0
   -8.0880   -2.4210  -17.2340 C   0  0  2  0  0  0  0  0  0  0  0  0
   -7.4690   -0.8490  -19.6660 F   0  0  0  0  0  0  0  0  0  0  0  0
   -4.2820   -0.8200  -18.5230 C   0  0  1  0  0  0  0  0  0  0  0  0
   -2.2920   -1.4770  -17.9730 C   0  0  1  0  0  0  0  0  0  0  0  0
   -4.4860   -1.9380  -17.4520 C   0  0  0  0  0  0  0  0  0  0  0  0
   -8.4390   -3.1520  -18.4220 O   0  0  0  0  0  0  0  0  0  0  0  0
   -2.6530   -3.0630  -16.4360 N   0  0  0  0  0  0  0  0  0  0  0  0
   -7.2340   -3.4440  -15.1120 O   0  0  0  0  0  0  0  0  0  0  0  0
   -2.9240   -0.2670  -18.7390 C   0  0  1  0  0  0  0  0  0  0  0  0
   -8.1020   -3.4570  -16.0270 C   0  0  0  0  0  0  0  0  0  0  0  0
   -5.5540   -2.3870  -17.0690 O   0  0  0  0  0  0  0  0  0  0  0  0
  1  2  1  0
  2 18  1  0
  3 18  1  0
  4  1  2  0
  5  7  1  0
  7 13  1  1
  7  9  1  0
  9 12  1  0
  9 22  1  6
 10 21  2  0
 11  8  1  0
 12 17  1  6
 12  8  1  0
 12 21  1  0
 14  5  1  6
 14 16  1  0
 15  1  1  1
 15  3  1  0
 16  3  2  0
 16 22  1  0
 20  6  1  6
 20 14  1  0
 20 15  1  0
 21 19  1  0
M  END
$$$$

     RDKit          3D

 20 22  0  0  0  0  0  0  0  0999 V2000
   -4.3870   -3.3600  -15.7890 O   0  0  0  0  0  0  0  0  0  0  0  0
    0.4260   -0.4090  -16.2330 O   0  0  0  0  0  0  0  0  0  0  0  0
   -0.3610   -2.0300  -17.8880 C   0  0  1  0  0  0  0  0  0  0  0  0
   -1.7500   -2.8980  -17.7650 C   0  0  2  0  0  0  0  0  0  0  0  0
   -7.8960   -2.4190  -18.4890 N   0  0  0  0  0  0  0  0  0  0  0  0
   -9.9270   -1.8770  -17.4670 O   0  0  0  0  0  0  0  0  0  0  0  0
   -7.9180   -2.4360  -16.1490 C   0  0  0  0  0  0  0  0  0  0  0  0
    0.1660   -1.7750  -16.4810 C   0  0  0  0  0  0  0  0  0  0  0  0
   -6.7030   -1.7590  -18.7930 C   0  0  0  0  0  0  0  0  0  0  0  0
   -2.4630   -3.4520  -16.5310 C   0  0  0  0  0  0  0  0  0  0  0  0
   -3.6350   -2.7000  -16.8020 C   0  0  1  0  0  0  0  0  0  0  0  0
   -0.2470    0.4470  -16.4550 C   0  0  0  0  0  0  0  0  0  0  0  0
   -4.4290   -2.1520  -17.8590 C   0  0  2  0  0  0  0  0  0  0  0  0
   -0.3560   -3.6250  -17.9090 C   0  0  1  0  0  0  0  0  0  0  0  0
   -2.4380   -2.3290  -18.7770 O   0  0  0  0  0  0  0  0  0  0  0  0
   -6.3170   -2.5770  -16.5980 N   0  0  0  0  0  0  0  0  0  0  0  0
   -8.6980   -1.8010  -17.4240 C   0  0  1  0  0  0  0  0  0  0  0  0
   -3.3730   -1.4540  -18.3270 C   0  0  0  0  0  0  0  0  0  0  0  0
   -5.5390   -2.1070  -17.6040 C   0  0  2  0  0  0  0  0  0  0  0  0
   -0.1680   -3.9140  -19.2220 C   0  0  0  0  0  0  0  0  0  0  0  0
  3  4  1  0
  3  8  1  1
  4 10  1  1
  5 17  1  0
  8  2  1  0
  9  5  1  0
 11 10  1  0
 11  1  1  6
 12  2  1  0
 13 18  1  1
 13 19  1  0
 13 11  1  0
 14 20  1  6
 14  3  1  0
 14  4  1  0
 15 18  1  0
 15  4  1  0
 16  7  1  0
 17  6  1  6
 17  7  1  0
 19  9  1  6
 19 16  1  0
M  END
$$$$

     RDKit          3D

 20 21  0  0  0  0  0  0  0  0999 V2000
   -5.3590   -2.6560  -17.4890 C   0  0  0  0  0  0  0  0  0  0  0  0
   -3.0250   -2.1340  -16.0180 C   0  0  0  0  0  0  0  0  0  0  0  0
   -1.6200    1.7650  -18.5800 C   0  0  0  0  0  0  0  0  0  0  0  0
   -2.0570    0.3040  -18.9460 C   0  0  1  0  0  0  0  0  0  0  0  0
   -7.8540   -4.1500  -15.1590 O   0  0  0  0  0  0  0  0  0  0  0  0
   -8.6850   -2.2590  -15.4570 F   0  0  0  0  0  0  0  0  0  0  0  0
   -2.8850   -0.7190  -18.2900 C   0  0  2  0  0  0  0  0  0  0  0  0
   -8.9580   -0.8520  -18.0800 C   0  0  0  0  0  0  0  0  0  0  0  0
   -8.5110   -3.3690  -16.1240 C   0  0  1  0  0  0  0  0  0  0  0  0
   -1.7360   -2.4250  -15.9610 C   0  0  0  0  0  0  0  0  0  0  0  0
   -7.5290   -3.0500  -17.2770 C   0  0  1  0  0  0  0  0  0  0  0  0
   -7.7580   -1.5800  -17.9710 C   0  0  0  0  0  0  0  0  0  0  0  0
   -1.9120   -0.0040  -20.3010 O   0  0  0  0  0  0  0  0  0  0  0  0
   -9.5500   -3.9360  -16.6340 C   0  0  0  0  0  0  0  0  0  0  0  0
   -5.0840   -1.2310  -17.2330 C   0  0  0  0  0  0  0  0  0  0  0  0
   -6.4710   -3.0950  -16.6750 O   0  0  0  0  0  0  0  0  0  0  0  0
   -4.2780   -0.5200  -19.3780 O   0  0  0  0  0  0  0  0  0  0  0  0
   -3.5570   -1.3310  -17.2610 C   0  0  0  0  0  0  0  0  0  0  0  0
   -1.1700   -0.9210  -17.8710 C   0  0  2  0  0  0  0  0  0  0  0  0
   -0.8240   -1.4150  -16.7390 C   0  0  0  0  0  0  0  0  0  0  0  0
  1 15  1  0
  1 16  1  0
  2 10  1  0
  4  3  1  6
  4  7  1  0
  4 19  1  0
  7 17  1  6
  7 19  1  0
  7 18  1  0
  8 12  1  0
  9 14  1  6
  9  6  1  0
  9  5  1  0
 11 12  1  1
 11 16  1  0
 11  9  1  0
 13  4  1  0
 18 15  1  0
 18  2  2  0
 19 20  1  1
 20 10  1  0
M  END
$$$$

     RDKit          3D

 20 22  0  0  0  0  0  0  0  0999 V2000
   -8.4640   -4.2620  -15.3100 O   0  0  0  0  0  0  0  0  0  0  0  0
   -2.6730   -2.4620  -16.3510 C   0  0  0  0  0  0  0  0  0  0  0  0
   -6.2690   -1.7130  -17.7260 C   0  0  0  0  0  0  0  0  0  0  0  0
   -0.9190   -3.0610  -17.4280 C   0  0  0  0  0  0  0  0  0  0  0  0
   -3.2680   -0.3670  -19.5790 C   0  0  0  0  0  0  0  0  0  0  0  0
   -1.9220   -0.5250  -19.9420 C   0  0  0  0  0  0  0  0  0  0  0  0
   -1.8770   -2.5960  -18.5610 C   0  0  2  0  0  0  0  0  0  0  0  0
   -1.1440   -1.5020  -19.3730 C   0  0  0  0  0  0  0  0  0  0  0  0
   -1.3260   -2.5120  -16.3290 N   0  0  0  0  0  0  0  0  0  0  0  0
   -5.9190   -3.3920  -14.5800 O   0  0  0  0  0  0  0  0  0  0  0  0
   -7.6560   -1.7650  -17.9110 C   0  0  0  0  0  0  0  0  0  0  0  0
   -7.7390   -3.3160  -16.0700 C   0  0  0  0  0  0  0  0  0  0  0  0
   -6.4870   -2.9760  -15.7380 C   0  0  0  0  0  0  0  0  0  0  0  0
   -5.8560   -0.5460  -19.7220 O   0  0  0  0  0  0  0  0  0  0  0  0
   -5.7250   -2.2160  -16.6640 C   0  0  0  0  0  0  0  0  0  0  0  0
   -3.2670   -2.6540  -15.4590 O   0  0  0  0  0  0  0  0  0  0  0  0
   -3.0730   -1.9060  -17.8040 C   0  0  2  0  0  0  0  0  0  0  0  0
   -5.3550   -1.1290  -18.7380 C   0  0  0  0  0  0  0  0  0  0  0  0
   -8.4280   -2.6220  -17.1530 C   0  0  0  0  0  0  0  0  0  0  0  0
   -3.9120   -1.1130  -18.6270 C   0  0  2  0  0  0  0  0  0  0  0  0
  2  9  1  0
  2 16  2  0
  3 15  1  0
  4  9  1  0
  5 20  1  0
  6  5  2  0
  6  8  1  0
  7  8  1  6
  7 17  1  0
  7  4  1  0
 11  3  2  0
 11 19  1  0
 12 13  1  0
 12  1  1  0
 13 10  1  0
 14 18  2  0
 15 13  2  0
 17  2  1  1
 18  3  1  0
 19 12  2  0
 20 18  1  6
 20 17  1  0
M  END
$$$$

     RDKit          3D

 21 25  0  0  0  0  0  0  0  0999 V2000
   -3.0300   -1.8550  -16.9560 C   0  0  1  0  0  0  0  0  0  0  0  0
   -0.9120   -0.5930  -18.7060 C   0  0  2  0  0  0  0  0  0  0  0  0
   -4.0380   -3.0600  -16.6380 C   0  0  0  0  0  0  0  0  0  0  0  0
   -6.2790   -3.1400  -15.9540 C   0  0  0  0  0  0  0  0  0  0  0  0
   -8.2840   -2.9060  -17.5460 C   0  0  1  0  0  0  0  0  0  0  0  0
   -4.7310   -1.2330  -18.5540 C   0  0  0  0  0  0  0  0  0  0  0  0
   -7.8070   -0.9470  -18.9660 F   0  0  0  0  0  0  0  0  0  0  0  0
   -5.3870   -2.7440  -16.8560 C   0  0  0  0  0  0  0  0  0  0  0  0
   -0.1270   -0.6480  -19.9310 O   0  0  0  0  0  0  0  0  0  0  0  0
   -7.0600   -2.9360  -19.5640 F   0  0  0  0  0  0  0  0  0  0  0  0
   -3.3630   -1.5350  -18.3590 C   0  0  1  0  0  0  0  0  0  0  0  0
   -1.8570   -2.8920  -16.4180 C   0  0  0  0  0  0  0  0  0  0  0  0
   -8.9120   -2.0060  -16.3590 C   0  0  0  0  0  0  0  0  0  0  0  0
   -1.5700   -1.6200  -16.6690 C   0  0  1  0  0  0  0  0  0  0  0  0
   -7.1980   -2.1130  -18.5340 C   0  0  2  0  0  0  0  0  0  0  0  0
   -0.4040   -1.4740  -17.6170 C   0  0  0  0  0  0  0  0  0  0  0  0
   -2.4380   -0.5680  -18.9920 C   0  0  2  0  0  0  0  0  0  0  0  0
   -2.6660   -0.3070  -20.3630 O   0  0  0  0  0  0  0  0  0  0  0  0
   -7.8570   -4.0620  -15.0890 O   0  0  0  0  0  0  0  0  0  0  0  0
   -5.7840   -1.9410  -18.0350 C   0  0  2  0  0  0  0  0  0  0  0  0
   -7.7450   -3.0190  -16.0380 C   0  0  2  0  0  0  0  0  0  0  0  0
  1 14  1  0
  1  3  1  1
  1 12  1  0
  2  9  1  6
  2 16  1  0
  5 13  1  1
  5 21  1  0
 15  7  1  6
  8  3  1  0
  8  4  2  0
 10 15  1  0
 11  6  1  1
 11  1  1  0
 13 21  1  0
 14 16  1  6
 14 12  1  0
 15 20  1  0
 15  5  1  0
 17 18  1  6
 17  2  1  0
 17 11  1  0
 20  6  1  6
 20  8  1  0
 21  4  1  0
 21 19  1  1
M  END
$$$$

     RDKit          3D

 20 21  0  0  0  0  0  0  0  0999 V2000
   -5.2460   -2.2610  -17.0830 C   0  0  1  0  0  0  0  0  0  0  0  0
   -1.8520   -1.3780  -17.9490 C   0  0  0  0  0  0  0  0  0  0  0  0
   -8.8730   -2.1210  -17.3090 C   0  0  0  0  0  0  0  0  0  0  0  0
   -6.5960   -2.1860  -18.4610 N   0  0  0  0  0  0  0  0  0  0  0  0
   -0.9100   -2.6640  -19.4840 N   0  0  0  0  0  0  0  0  0  0  0  0
   -5.4730   -1.5300  -18.2270 C   0  0  0  0  0  0  0  0  0  0  0  0
   -2.0210   -0.7460  -20.0620 C   0  0  0  0  0  0  0  0  0  0  0  0
   -6.2590   -2.6210  -16.3330 N   0  0  0  0  0  0  0  0  0  0  0  0
   -8.2510   -3.6070  -15.9510 O   0  0  0  0  0  0  0  0  0  0  0  0
   -3.1610   -2.0050  -15.9580 O   0  0  0  0  0  0  0  0  0  0  0  0
   -0.8190   -3.3930  -17.4850 O   0  0  0  0  0  0  0  0  0  0  0  0
   -7.5270   -2.6120  -17.0010 C   0  0  1  0  0  0  0  0  0  0  0  0
   -1.1600   -2.4610  -18.2600 C   0  0  0  0  0  0  0  0  0  0  0  0
   -8.9980   -0.8160  -17.5450 O   0  0  0  0  0  0  0  0  0  0  0  0
  -10.0300   -2.7300  -17.5280 O   0  0  0  0  0  0  0  0  0  0  0  0
   -7.6930   -4.4230  -14.9190 O   0  0  0  0  0  0  0  0  0  0  0  0
   -2.0610   -1.1330  -16.4720 C   0  0  0  0  0  0  0  0  0  0  0  0
   -1.2440   -1.8220  -20.4140 C   0  0  0  0  0  0  0  0  0  0  0  0
   -2.4200   -0.4790  -18.7750 C   0  0  0  0  0  0  0  0  0  0  0  0
   -3.9290   -2.7870  -16.5830 C   0  0  0  0  0  0  0  0  0  0  0  0
  1 20  1  6
  1  8  1  0
  2 17  1  0
  4  6  1  0
  4 12  1  0
  5 13  1  0
  6  1  1  0
  7 19  1  0
  9 16  1  0
 12  3  1  0
 12  8  1  0
 12  9  1  6
 13  2  1  0
 13 11  2  0
 14  3  2  0
 15  3  1  0
 17 10  1  0
 18  7  1  0
 18  5  2  0
 19  2  2  0
 20 10  1  0
M  END
$$$$

     RDKit          3D

 22 23  0  0  0  0  0  0  0  0999 V2000
   -5.0960   -3.0950  -15.2750 O   0  0  0  0  0  0  0  0  0  0  0  0
   -2.5850   -0.5450  -17.0520 C   0  0  0  0  0  0  0  0  0  0  0  0
   -1.7740   -1.1170  -17.9270 C   0  0  0  0  0  0  0  0  0  0  0  0
   -3.9890   -0.1350  -17.4510 C   0  0  0  0  0  0  0  0  0  0  0  0
   -4.4300   -1.2150  -18.5740 C   0  0  1  0  0  0  0  0  0  0  0  0
   -6.7440   -0.3690  -18.8210 O   0  0  0  0  0  0  0  0  0  0  0  0
   -3.1130   -3.0050  -16.5590 C   0  0  1  0  0  0  0  0  0  0  0  0
   -1.7160   -2.7890  -16.3820 C   0  0  0  0  0  0  0  0  0  0  0  0
   -1.6470   -1.4330  -17.1330 C   0  0  2  0  0  0  0  0  0  0  0  0
   -6.0650   -2.1310  -16.8050 C   0  0  0  0  0  0  0  0  0  0  0  0
   -8.0210   -4.4370  -15.0720 O   0  0  0  0  0  0  0  0  0  0  0  0
   -3.5810   -1.0010  -19.6840 C   0  0  0  0  0  0  0  0  0  0  0  0
   -1.8000   -2.3240  -18.3990 C   0  0  0  0  0  0  0  0  0  0  0  0
   -4.9670   -2.3430  -17.2390 C   0  0  2  0  0  0  0  0  0  0  0  0
   -4.7910   -2.6850  -16.3960 C   0  0  0  0  0  0  0  0  0  0  0  0
   -2.3520   -2.7680  -17.2350 C   0  0  1  0  0  0  0  0  0  0  0  0
   -6.1420   -1.9340  -20.0830 N   0  0  0  0  0  0  0  0  0  0  0  0
   -8.2430   -2.1010  -16.5380 O   0  0  0  0  0  0  0  0  0  0  0  0
   -5.7350   -1.1360  -19.1630 C   0  0  0  0  0  0  0  0  0  0  0  0
   -2.9420   -2.7360  -15.7360 C   0  0  0  0  0  0  0  0  0  0  0  0
   -7.4530   -3.8350  -15.8610 C   0  0  0  0  0  0  0  0  0  0  0  0
   -7.3060   -2.6860  -16.4420 C   0  0  0  0  0  0  0  0  0  0  0  0
  3  9  1  0
  5  4  1  1
  5 14  1  0
  7 15  1  6
  7 20  1  0
  8 20  1  0
  9  2  1  1
 10 22  1  0
 12  5  1  0
 13  3  1  0
 14 10  1  1
 14 15  1  0
 15  1  2  0
 16 13  1  6
 16  9  1  0
 16  7  1  0
 16  8  1  0
 17 19  1  0
 18 22  2  0
 19  6  2  0
 19  5  1  0
 21 11  2  0
 22 21  1  0
M  END
$$$$

     RDKit          3D

 20 20  0  0  0  0  0  0  0  0999 V2000
   -7.1680   -3.1400  -16.0560 C   0  0  0  0  0  0  0  0  0  0  0  0
   -5.2660   -1.9570  -16.9370 C   0  0  0  0  0  0  0  0  0  0  0  0
   -7.1780   -1.7440  -19.4280 C   0  0  0  0  0  0  0  0  0  0  0  0
   -8.7920   -2.1950  -17.2170 C   0  0  0  0  0  0  0  0  0  0  0  0
   -0.8430   -3.4080  -17.7020 O   0  0  0  0  0  0  0  0  0  0  0  0
   -3.6980   -0.4270  -18.2000 C   0  0  1  0  0  0  0  0  0  0  0  0
   -8.5560   -3.0970  -16.2320 N   0  0  0  0  0  0  0  0  0  0  0  0
   -7.5080   -2.0370  -17.9860 C   0  0  1  0  0  0  0  0  0  0  0  0
   -2.8160   -1.3860  -17.4780 O   0  0  0  0  0  0  0  0  0  0  0  0
   -6.6170   -2.3440  -17.0380 N   0  0  0  0  0  0  0  0  0  0  0  0
   -1.7790    1.2710  -19.1110 O   0  0  0  0  0  0  0  0  0  0  0  0
   -3.1720   -0.6490  -19.5730 C   0  0  1  0  0  0  0  0  0  0  0  0
   -2.1450   -3.4020  -15.8150 O   0  0  0  0  0  0  0  0  0  0  0  0
   -1.8730   -3.1070  -17.0670 C   0  0  0  0  0  0  0  0  0  0  0  0
   -6.5540   -3.7930  -15.2460 O   0  0  0  0  0  0  0  0  0  0  0  0
   -2.8080   -2.5570  -17.9720 O   0  0  0  0  0  0  0  0  0  0  0  0
   -9.8250   -1.6810  -17.5080 O   0  0  0  0  0  0  0  0  0  0  0  0
   -4.8740   -0.7960  -17.6150 C   0  0  0  0  0  0  0  0  0  0  0  0
   -3.6740    0.0310  -20.6570 O   0  0  0  0  0  0  0  0  0  0  0  0
   -1.7070   -0.1470  -19.4230 C   0  0  0  0  0  0  0  0  0  0  0  0
  1 15  2  0
  4  7  1  0
  5 14  2  0
  6 18  1  6
  6  9  1  0
  7  1  1  0
  8  3  1  6
  8  4  1  0
  8 10  1  0
 10  2  1  0
 10  1  1  0
 12 19  1  6
 12 20  1  0
 12  6  1  0
 14 13  1  0
 16  9  1  0
 16 14  1  0
 17  4  2  0
 18  2  1  0
 20 11  1  0
M  END
$$$$

     RDKit          3D

 19 20  0  0  0  0  0  0  0  0999 V2000
   -1.7850   -1.1740  -19.6190 C   0  0  0  0  0  0  0  0  0  0  0  0
   -7.3570   -2.9170  -15.3570 C   0  0  0  0  0  0  0  0  0  0  0  0
   -2.6960   -2.0160  -18.6580 C   0  0  2  0  0  0  0  0  0  0  0  0
   -3.1690   -1.3550  -17.7970 O   0  0  0  0  0  0  0  0  0  0  0  0
   -6.5130   -2.6050  -16.4790 C   0  0  0  0  0  0  0  0  0  0  0  0
   -6.8350   -1.7250  -18.6140 C   0  0  1  0  0  0  0  0  0  0  0  0
   -0.6590   -0.9240  -19.1530 C   0  0  0  0  0  0  0  0  0  0  0  0
   -7.4640   -1.2760  -19.7470 O   0  0  0  0  0  0  0  0  0  0  0  0
   -2.1670   -3.0630  -17.7540 C   0  0  0  0  0  0  0  0  0  0  0  0
   -7.3690   -2.2750  -17.7580 C   0  0  2  0  0  0  0  0  0  0  0  0
   -5.2740   -2.2420  -16.4030 C   0  0  0  0  0  0  0  0  0  0  0  0
   -4.8050   -0.7650  -19.7550 O   0  0  0  0  0  0  0  0  0  0  0  0
   -4.6520   -1.5910  -17.4560 C   0  0  2  0  0  0  0  0  0  0  0  0
   -0.3230   -0.7560  -16.9380 F   0  0  0  0  0  0  0  0  0  0  0  0
   -8.7520   -2.2970  -17.5790 O   0  0  0  0  0  0  0  0  0  0  0  0
   -7.4080   -4.3370  -15.0800 O   0  0  0  0  0  0  0  0  0  0  0  0
   -5.3390   -1.8320  -18.8770 C   0  0  1  0  0  0  0  0  0  0  0  0
   -1.1550   -2.8030  -17.0050 C   0  0  0  0  0  0  0  0  0  0  0  0
   -0.2480   -1.8550  -17.7360 N   0  0  0  0  0  0  0  0  0  0  0  0
  1  7  1  0
  1  3  1  0
  2 16  1  0
  3  4  1  1
  3  9  1  0
  5 11  2  0
  5  2  1  0
  6  8  1  6
  6 10  1  0
  7 19  1  0
  9 18  1  0
 10 15  1  1
 10  5  1  0
 13  4  1  6
 13 11  1  0
 17 12  1  6
 17  6  1  0
 17 13  1  0
 19 18  1  0
 19 14  1  0
M  END
$$$$

     RDKit          3D

 20 23  0  0  0  0  0  0  0  0999 V2000
   -8.5220   -2.5000  -17.2420 S   0  0  2  0  0  0  0  0  0  0  0  0
   -3.0760   -3.7790  -17.3470 C   0  0  0  0  0  0  0  0  0  0  0  0
   -1.6690   -2.0960  -16.8870 C   0  0  1  0  0  0  0  0  0  0  0  0
   -4.5710   -1.3070  -17.3200 C   0  0  0  0  0  0  0  0  0  0  0  0
   -3.0870   -1.2020  -16.9200 C   0  0  1  0  0  0  0  0  0  0  0  0
   -8.4860   -3.5380  -18.2500 O   0  0  0  0  0  0  0  0  0  0  0  0
   -9.5220   -1.4680  -17.2080 O   0  0  0  0  0  0  0  0  0  0  0  0
   -5.8840   -1.8390  -16.8820 C   0  0  0  0  0  0  0  0  0  0  0  0
   -7.0120   -1.7430  -17.7820 C   0  0  0  0  0  0  0  0  0  0  0  0
   -5.4500   -0.5330  -20.9240 C   0  0  0  0  0  0  0  0  0  0  0  0
   -3.0100   -2.5690  -16.4690 C   0  0  1  0  0  0  0  0  0  0  0  0
   -2.0950   -1.3850  -18.1380 C   0  0  2  0  0  0  0  0  0  0  0  0
   -3.1150   -0.8220  -19.1260 C   0  0  0  0  0  0  0  0  0  0  0  0
   -3.9870   -2.8710  -15.3080 C   0  0  0  0  0  0  0  0  0  0  0  0
   -0.8230   -0.6330  -18.6530 C   0  0  0  0  0  0  0  0  0  0  0  0
   -5.5680   -0.9180  -19.4960 C   0  0  0  0  0  0  0  0  0  0  0  0
   -8.5120   -3.3960  -15.9330 N   0  0  0  0  0  0  0  0  0  0  0  0
   -4.4360   -1.0390  -18.7320 C   0  0  0  0  0  0  0  0  0  0  0  0
   -6.8000   -1.2130  -19.0230 C   0  0  0  0  0  0  0  0  0  0  0  0
   -2.7690   -0.1410  -20.0600 O   0  0  0  0  0  0  0  0  0  0  0  0
  1  7  2  0
  1 17  1  1
 11  2  1  6
  3 11  1  6
  4  8  2  0
  5  4  1  6
  5  3  1  0
  5 11  1  0
  6  1  2  0
  9  1  1  0
  9  8  1  0
 10 16  1  0
 11 14  1  0
 12 15  1  1
 12  5  1  0
 12  3  1  0
 13 18  1  0
 13 12  1  0
 16 19  1  0
 16 18  2  0
 18  4  1  0
 19  9  2  0
 20 13  2  0
M  END
$$$$

     RDKit          3D

 21 22  0  0  0  0  0  0  0  0999 V2000
   -0.9320   -3.7540  -18.2480 C   0  0  0  0  0  0  0  0  0  0  0  0
   -3.2940   -2.5620  -17.4170 C   0  0  0  0  0  0  0  0  0  0  0  0
    0.5380   -2.3500  -17.0350 C   0  0  0  0  0  0  0  0  0  0  0  0
   -5.4810   -2.7690  -16.7930 C   0  0  0  0  0  0  0  0  0  0  0  0
   -9.4820   -2.3380  -16.7450 C   0  0  0  0  0  0  0  0  0  0  0  0
   -2.1500   -3.8190  -15.9750 O   0  0  0  0  0  0  0  0  0  0  0  0
   -6.0860   -3.4040  -15.7680 N   0  0  0  0  0  0  0  0  0  0  0  0
   -5.8620   -2.0300  -17.7190 C   0  0  0  0  0  0  0  0  0  0  0  0
   -2.0240   -3.1460  -17.3170 C   0  0  1  0  0  0  0  0  0  0  0  0
   -1.7690   -0.9300  -16.2860 C   0  0  0  0  0  0  0  0  0  0  0  0
   -7.9840   -4.2550  -15.0590 O   0  0  0  0  0  0  0  0  0  0  0  0
   -8.0800   -2.4970  -16.8230 C   0  0  0  0  0  0  0  0  0  0  0  0
   -7.3690   -1.6700  -17.9010 C   0  0  0  0  0  0  0  0  0  0  0  0
   -3.9920   -2.9800  -16.6930 N   0  0  0  0  0  0  0  0  0  0  0  0
   -1.0840   -1.8320  -17.2270 C   0  0  1  0  0  0  0  0  0  0  0  0
   -1.1030   -1.5420  -18.7090 O   0  0  0  0  0  0  0  0  0  0  0  0
   -7.8280   -1.0530  -18.6430 O   0  0  0  0  0  0  0  0  0  0  0  0
   -3.7820   -1.5520  -18.4680 C   0  0  0  0  0  0  0  0  0  0  0  0
    0.8700   -1.4310  -18.0960 C   0  0  0  0  0  0  0  0  0  0  0  0
   -5.0340   -1.3800  -18.5630 N   0  0  0  0  0  0  0  0  0  0  0  0
   -7.4330   -3.4770  -15.8500 C   0  0  0  0  0  0  0  0  0  0  0  0
  2  9  1  0
  2 14  2  0
  4 14  1  0
  4  7  2  0
  8  4  1  0
  9  1  1  6
  9 15  1  0
  9  6  1  0
 12  5  1  0
 12 21  1  0
 13  8  1  0
 13 12  1  0
 15  3  1  0
 15 10  1  1
 16 15  1  0
 17 13  2  0
 18  2  1  0
 19  3  1  0
 20 18  1  0
 20  8  2  0
 21  7  1  0
 21 11  2  0
M  END
$$$$

     RDKit          3D

 22 24  0  0  0  0  0  0  0  0999 V2000
   -8.6260   -4.2530  -15.6690 O   0  0  0  0  0  0  0  0  0  0  0  0
   -3.3630   -1.0940  -19.7390 C   0  0  0  0  0  0  0  0  0  0  0  0
   -4.5410   -1.2990  -19.0070 C   0  0  0  0  0  0  0  0  0  0  0  0
   -7.8900   -2.5930  -16.9960 C   0  0  0  0  0  0  0  0  0  0  0  0
   -6.6000   -2.7380  -16.5240 N   0  0  0  0  0  0  0  0  0  0  0  0
   -3.3130   -2.2080  -16.9940 S   0  0  2  0  0  0  0  0  0  0  0  0
   -0.9850   -1.7780  -20.0510 C   0  0  0  0  0  0  0  0  0  0  0  0
   -7.9410   -1.9090  -18.1330 C   0  0  0  0  0  0  0  0  0  0  0  0
   -1.9380   -1.8130  -17.7790 C   0  0  1  0  0  0  0  0  0  0  0  0
    1.8240   -1.1300  -18.4070 C   0  0  0  0  0  0  0  0  0  0  0  0
   -0.9550   -2.8580  -17.3810 N   0  0  0  0  0  0  0  0  0  0  0  0
   -6.6360   -1.5990  -18.3650 N   0  0  0  0  0  0  0  0  0  0  0  0
   -2.1530   -1.5050  -19.2020 C   0  0  2  0  0  0  0  0  0  0  0  0
   -3.3740   -3.9160  -17.2030 C   0  0  0  0  0  0  0  0  0  0  0  0
   -4.6330   -1.8650  -17.7650 C   0  0  0  0  0  0  0  0  0  0  0  0
   -3.3850   -2.3650  -15.6390 O   0  0  0  0  0  0  0  0  0  0  0  0
   -5.8250   -2.1230  -17.4460 C   0  0  0  0  0  0  0  0  0  0  0  0
   -5.8570   -0.9720  -19.3510 N   0  0  0  0  0  0  0  0  0  0  0  0
    1.2200   -1.1640  -19.4380 C   0  0  0  0  0  0  0  0  0  0  0  0
  -10.0480   -3.1420  -17.0720 O   0  0  0  0  0  0  0  0  0  0  0  0
   -8.8850   -3.3340  -16.4720 C   0  0  0  0  0  0  0  0  0  0  0  0
   -0.1620   -0.5960  -19.8340 C   0  0  0  0  0  0  0  0  0  0  0  0
  2 13  1  0
  2  3  1  0
  3 15  1  0
  4  5  2  0
  4 21  1  0
  6 14  1  6
  6 16  1  0
  7 22  1  0
  8  4  1  0
  9 11  1  6
  9  6  1  0
 12  8  1  0
 12 17  1  0
 13  7  1  6
 13  9  1  0
 15 17  2  0
 15  6  1  0
 17  5  1  0
 18  3  2  0
 18 12  1  0
 19 10  2  0
 20 21  2  0
 21  1  1  0
 22 19  1  0
M  END
$$$$

     RDKit          3D

 22 24  0  0  0  0  0  0  0  0999 V2000
   -4.1560   -0.6970  -20.5860 O   0  0  0  0  0  0  0  0  0  0  0  0
   -1.2210   -0.7640  -17.7130 C   0  0  1  0  0  0  0  0  0  0  0  0
   -7.3480   -1.9000  -19.6380 O   0  0  0  0  0  0  0  0  0  0  0  0
   -1.4390   -1.8720  -17.0700 C   0  0  0  0  0  0  0  0  0  0  0  0
   -7.7250   -4.4260  -14.7820 O   0  0  0  0  0  0  0  0  0  0  0  0
   -2.0110   -2.9260  -14.4520 C   0  0  0  0  0  0  0  0  0  0  0  0
   -3.9860   -0.6140  -16.9760 F   0  0  0  0  0  0  0  0  0  0  0  0
   -7.4730   -3.6220  -15.6080 C   0  0  0  0  0  0  0  0  0  0  0  0
   -8.4240   -2.3890  -17.5250 C   0  0  0  0  0  0  0  0  0  0  0  0
   -3.7560   -1.8700  -17.0640 C   0  0  1  0  0  0  0  0  0  0  0  0
   -8.3350   -3.3010  -16.4490 N   0  0  0  0  0  0  0  0  0  0  0  0
   -2.5150   -3.5080  -15.7300 C   0  0  0  0  0  0  0  0  0  0  0  0
   -2.0860   -1.3510  -20.0820 O   0  0  0  0  0  0  0  0  0  0  0  0
   -3.1960   -0.3020  -20.0580 C   0  0  2  0  0  0  0  0  0  0  0  0
   -2.6660   -2.5310  -16.5950 C   0  0  0  0  0  0  0  0  0  0  0  0
   -7.2080   -2.0400  -18.3040 C   0  0  2  0  0  0  0  0  0  0  0  0
   -6.0970   -2.9250  -15.5670 C   0  0  0  0  0  0  0  0  0  0  0  0
   -9.5390   -1.9980  -17.8200 O   0  0  0  0  0  0  0  0  0  0  0  0
   -5.2380   -2.1700  -16.6720 C   0  0  2  0  0  0  0  0  0  0  0  0
   -2.4620   -0.2750  -18.7490 C   0  0  1  0  0  0  0  0  0  0  0  0
   -1.3140    0.4220  -18.4690 O   0  0  0  0  0  0  0  0  0  0  0  0
   -5.9630   -1.6720  -17.8520 C   0  0  0  0  0  0  0  0  0  0  0  0
  2  4  1  0
  4 15  2  3
  8 17  1  0
  8  5  2  0
  9 11  1  0
 10  7  1  1
 10 15  1  0
 11  8  1  0
 12  6  1  0
 13 14  1  0
 14  1  1  1
 14 20  1  0
 15 12  1  0
 16  3  1  6
 16 22  1  0
 16  9  1  0
 18  9  2  0
 19 10  1  0
 19 17  1  6
 20 13  1  6
 20 21  1  0
 20  2  1  0
  2 21  1  1
 22 19  1  0
M  END
$$$$

     RDKit          3D

 19 20  0  0  0  0  0  0  0  0999 V2000
   -7.6330   -2.3340  -17.6810 C   0  0  2  0  0  0  0  0  0  0  0  0
   -6.1220   -0.6670  -20.0680 O   0  0  0  0  0  0  0  0  0  0  0  0
   -2.1460   -2.4330  -17.4490 C   0  0  0  0  0  0  0  0  0  0  0  0
   -8.7110   -1.8420  -17.3130 C   0  0  2  0  0  0  0  0  0  0  0  0
   -6.9600   -1.0340  -19.1950 C   0  0  0  0  0  0  0  0  0  0  0  0
   -3.8950   -2.6500  -15.7930 C   0  0  0  0  0  0  0  0  0  0  0  0
   -5.5650   -1.4730  -15.3870 F   0  0  0  0  0  0  0  0  0  0  0  0
   -7.8430   -3.5220  -15.5880 C   0  0  0  0  0  0  0  0  0  0  0  0
   -4.8740   -2.0210  -16.3360 C   0  0  0  0  0  0  0  0  0  0  0  0
   -8.8320   -0.4210  -17.5190 C   0  0  0  0  0  0  0  0  0  0  0  0
   -8.2520   -0.4160  -19.0700 C   0  0  0  0  0  0  0  0  0  0  0  0
   -5.0750   -1.8230  -17.6040 C   0  0  0  0  0  0  0  0  0  0  0  0
   -2.8210   -1.8940  -18.4350 C   0  0  0  0  0  0  0  0  0  0  0  0
   -7.3790   -2.7040  -16.4100 C   0  0  0  0  0  0  0  0  0  0  0  0
   -3.9540   -1.3980  -18.5620 C   0  0  0  0  0  0  0  0  0  0  0  0
   -6.5180   -1.9580  -18.1500 C   0  0  1  0  0  0  0  0  0  0  0  0
   -2.7040   -2.8420  -16.3260 C   0  0  0  0  0  0  0  0  0  0  0  0
   -9.4990   -2.1730  -16.4700 F   0  0  0  0  0  0  0  0  0  0  0  0
   -6.9840   -4.5740  -15.0140 O   0  0  0  0  0  0  0  0  0  0  0  0
  1  4  1  0
  1 14  1  1
  2  5  2  0
  3 17  1  0
  4 18  1  1
  5 11  1  0
  5 16  1  0
  8 19  1  0
  9  6  2  0
  9  7  1  0
 10  4  1  0
 11 10  1  0
 12  9  1  0
 13  3  2  0
 14  8  1  0
 15 13  1  0
 15 12  2  0
 16  1  1  0
 16 12  1  1
 17  6  1  0
M  END
$$$$

     RDKit          3D

 19 21  0  0  0  0  0  0  0  0999 V2000
   -0.9130   -1.2960  -19.9390 C   0  0  0  0  0  0  0  0  0  0  0  0
   -4.8490   -3.1410  -15.2030 N   0  0  0  0  0  0  0  0  0  0  0  0
   -0.7900   -2.4850  -19.1970 N   0  0  0  0  0  0  0  0  0  0  0  0
   -8.0710   -2.1260  -17.7470 C   0  0  0  0  0  0  0  0  0  0  0  0
   -1.4970   -3.9210  -17.5330 O   0  0  0  0  0  0  0  0  0  0  0  0
   -5.2560   -2.2480  -17.2020 C   0  0  0  0  0  0  0  0  0  0  0  0
   -3.7030   -2.8330  -15.6230 C   0  0  0  0  0  0  0  0  0  0  0  0
   -3.8300   -2.3180  -16.9100 C   0  0  0  0  0  0  0  0  0  0  0  0
   -2.0810   -0.4950  -19.7860 C   0  0  0  0  0  0  0  0  0  0  0  0
   -2.7920   -2.0210  -17.9070 C   0  0  0  0  0  0  0  0  0  0  0  0
   -5.8010   -1.7140  -18.3270 C   0  0  0  0  0  0  0  0  0  0  0  0
   -7.1600   -1.6890  -18.5650 C   0  0  0  0  0  0  0  0  0  0  0  0
   -1.6830   -2.8760  -18.1340 C   0  0  0  0  0  0  0  0  0  0  0  0
   -8.2430   -2.8680  -16.7580 N   0  0  0  0  0  0  0  0  0  0  0  0
    0.0680   -1.0690  -21.0350 F   0  0  0  0  0  0  0  0  0  0  0  0
   -5.8740   -2.8960  -16.1310 C   0  0  0  0  0  0  0  0  0  0  0  0
   -2.9760   -0.8130  -18.6940 C   0  0  0  0  0  0  0  0  0  0  0  0
   -7.3930   -4.1670  -15.0730 O   0  0  0  0  0  0  0  0  0  0  0  0
   -7.2600   -3.3900  -15.8920 C   0  0  0  0  0  0  0  0  0  0  0  0
  1  9  1  0
  1  3  2  0
  3 13  1  0
  4 14  1  0
  6  8  2  0
  6 16  1  0
  7  2  1  0
  8  7  1  0
  9 17  1  0
 10  8  1  0
 11  6  1  0
 12 11  2  0
 12  4  1  0
 13 10  1  0
 13  5  2  0
 14 19  1  0
 15  1  1  0
 16 19  1  0
 16  2  2  0
 17 10  2  0
 19 18  2  0
M  END
$$$$

     RDKit          3D

 19 20  0  0  0  0  0  0  0  0999 V2000
   -1.8910   -3.4890  -17.5840 C   0  0  0  0  0  0  0  0  0  0  0  0
   -0.4820   -2.9590  -17.7530 C   0  0  0  0  0  0  0  0  0  0  0  0
    0.3370   -0.9880  -18.5560 N   0  0  0  0  0  0  0  0  0  0  0  0
   -4.4540   -3.1620  -16.0890 C   0  0  0  0  0  0  0  0  0  0  0  0
   -1.0550   -0.8260  -21.0640 O   0  0  0  0  0  0  0  0  0  0  0  0
   -4.9830   -1.9930  -17.9670 C   0  0  0  0  0  0  0  0  0  0  0  0
   -2.1990   -1.6670  -18.6340 C   0  0  0  0  0  0  0  0  0  0  0  0
   -2.6860   -2.5830  -17.8190 N   0  0  0  0  0  0  0  0  0  0  0  0
   -6.1780   -2.2900  -17.3750 C   0  0  0  0  0  0  0  0  0  0  0  0
   -0.5500   -1.3990  -20.2280 C   0  0  0  0  0  0  0  0  0  0  0  0
   -8.6690   -2.1140  -17.1800 C   0  0  0  0  0  0  0  0  0  0  0  0
   -0.5440   -1.9530  -18.9590 C   0  0  2  0  0  0  0  0  0  0  0  0
   -7.5030   -1.9050  -19.3000 N   0  0  0  0  0  0  0  0  0  0  0  0
   -8.8630   -3.1300  -16.5240 O   0  0  0  0  0  0  0  0  0  0  0  0
   -9.3980   -1.2050  -17.1740 O   0  0  0  0  0  0  0  0  0  0  0  0
   -2.8500   -0.8850  -19.3620 O   0  0  0  0  0  0  0  0  0  0  0  0
   -5.7930   -2.9650  -16.1000 C   0  0  0  0  0  0  0  0  0  0  0  0
   -3.9010   -2.5740  -17.2560 C   0  0  0  0  0  0  0  0  0  0  0  0
   -7.3980   -2.1110  -17.9970 C   0  0  0  0  0  0  0  0  0  0  0  0
  2  1  1  0
  5 10  2  0
  6  9  2  0
  6 18  1  0
  7  8  1  0
  8  1  1  0
  8 18  1  0
  9 17  1  0
 10 12  1  0
 11 15  2  0
 11 14  1  0
 12  7  1  0
 12  3  1  1
 12  2  1  0
 13 19  2  0
 16  7  2  0
 17  4  1  0
 18  4  2  0
 19  9  1  0
 19 11  1  0
M  END
$$$$

     RDKit          3D

 22 23  0  0  0  0  0  0  0  0999 V2000
   -5.7050   -1.6400  -17.9460 C   0  0  0  0  0  0  0  0  0  0  0  0
   -1.2730   -2.6220  -17.9870 C   0  0  0  0  0  0  0  0  0  0  0  0
   -2.8140   -1.2080  -18.9270 C   0  0  0  0  0  0  0  0  0  0  0  0
   -1.6380   -1.5520  -18.7790 C   0  0  0  0  0  0  0  0  0  0  0  0
   -8.5110   -1.6010  -17.2980 C   0  0  0  0  0  0  0  0  0  0  0  0
   -6.7180   -0.9060  -18.7340 C   0  0  0  0  0  0  0  0  0  0  0  0
   -7.6770   -2.4750  -16.8120 C   0  0  0  0  0  0  0  0  0  0  0  0
   -3.8980   -1.6700  -18.1450 C   0  0  1  0  0  0  0  0  0  0  0  0
   -0.2700   -3.2910  -17.9860 O   0  0  0  0  0  0  0  0  0  0  0  0
    0.5970   -0.7070  -21.7950 C   0  0  0  0  0  0  0  0  0  0  0  0
   -0.4760   -1.2370  -20.8540 C   0  0  0  0  0  0  0  0  0  0  0  0
   -2.1050   -3.5910  -15.8730 C   0  0  0  0  0  0  0  0  0  0  0  0
   -8.2390   -3.6040  -16.0340 C   0  0  0  0  0  0  0  0  0  0  0  0
   -6.3200   -2.4490  -16.9660 C   0  0  0  0  0  0  0  0  0  0  0  0
   -9.9120   -1.3650  -16.8840 C   0  0  0  0  0  0  0  0  0  0  0  0
   -0.4130   -0.9370  -19.4200 C   0  0  0  0  0  0  0  0  0  0  0  0
   -8.0170   -0.7830  -18.3540 C   0  0  0  0  0  0  0  0  0  0  0  0
   -5.5680   -3.1360  -16.2060 O   0  0  0  0  0  0  0  0  0  0  0  0
   -9.0520   -4.4160  -16.3930 O   0  0  0  0  0  0  0  0  0  0  0  0
   -3.8220   -2.0450  -17.1250 C   0  0  0  0  0  0  0  0  0  0  0  0
   -7.8040   -3.6730  -14.8800 O   0  0  0  0  0  0  0  0  0  0  0  0
   -2.3150   -2.8620  -17.0350 N   0  0  0  0  0  0  0  0  0  0  0  0
  1 14  1  0
  2  9  2  0
  2 22  1  0
  3  4  2  0
  3  8  1  0
  4  2  1  0
  5 15  1  0
  5  7  1  0
  6 17  1  0
  6  1  2  0
  7 13  1  0
  8  1  1  1
  8 20  1  0
 10 11  1  0
 11 16  1  0
 13 21  1  0
 14  7  1  0
 14 18  2  0
 16  4  1  0
 17  5  2  0
 19 13  2  0
 20 22  1  0
 22 12  1  0
M  END
$$$$

     RDKit          3D

 20 22  0  0  0  0  0  0  0  0999 V2000
   -2.3510   -0.8500  -17.3040 C   0  0  0  0  0  0  0  0  0  0  0  0
   -6.1920   -2.9860  -16.0320 C   0  0  0  0  0  0  0  0  0  0  0  0
   -5.0180   -3.2550  -15.3990 O   0  0  0  0  0  0  0  0  0  0  0  0
   -8.6050   -2.4400  -16.4410 C   0  0  0  0  0  0  0  0  0  0  0  0
   -3.1430   -0.4060  -19.7020 C   0  0  0  0  0  0  0  0  0  0  0  0
   -7.8510   -2.2780  -17.4080 C   0  0  0  0  0  0  0  0  0  0  0  0
   -4.5090   -1.6350  -18.0290 C   0  0  0  0  0  0  0  0  0  0  0  0
   -6.5360   -2.4430  -17.2530 C   0  0  2  0  0  0  0  0  0  0  0  0
   -4.3020   -1.1630  -19.4570 C   0  0  0  0  0  0  0  0  0  0  0  0
   -7.3120   -2.9620  -15.3210 N   0  0  0  0  0  0  0  0  0  0  0  0
   -2.2620   -0.1200  -18.6500 C   0  0  0  0  0  0  0  0  0  0  0  0
   -2.8880   -2.4780  -15.7290 C   0  0  0  0  0  0  0  0  0  0  0  0
   -6.0250   -3.1380  -19.1130 O   0  0  0  0  0  0  0  0  0  0  0  0
   -1.2650   -0.5910  -16.3500 F   0  0  0  0  0  0  0  0  0  0  0  0
   -3.3870   -1.4870  -16.8970 C   0  0  0  0  0  0  0  0  0  0  0  0
   -1.4740    0.9130  -18.8520 F   0  0  0  0  0  0  0  0  0  0  0  0
   -2.8580    0.3160  -20.6960 F   0  0  0  0  0  0  0  0  0  0  0  0
   -3.7630   -3.6910  -15.9850 C   0  0  0  0  0  0  0  0  0  0  0  0
   -8.0790   -1.6540  -18.6890 N   0  0  0  0  0  0  0  0  0  0  0  0
   -5.6740   -2.4210  -18.2040 N   0  0  0  0  0  0  0  0  0  0  0  0
  1 15  2  0
  1 14  1  0
  2  3  1  0
  2 10  2  0
  4 10  1  0
  5  9  1  0
  5 11  2  0
  6  4  2  0
  7 15  1  0
  8  6  1  0
  8  2  1  0
  9  7  2  0
 11  1  1  0
 13 20  1  0
 15 12  1  0
 16 11  1  0
 17  5  1  0
 18 12  1  0
 18  3  1  0
 19  6  1  0
 20  7  1  0
  8 20  1  6
M  END
$$$$

     RDKit          3D

 19 20  0  0  0  0  0  0  0  0999 V2000
   -5.4100   -3.2310  -15.9200 N   0  0  0  0  0  0  0  0  0  0  0  0
   -9.1560   -0.7510  -18.1160 C   0  0  0  0  0  0  0  0  0  0  0  0
   -7.0650   -1.9290  -17.7180 C   0  0  0  0  0  0  0  0  0  0  0  0
   -6.8120   -3.2760  -15.7800 C   0  0  0  0  0  0  0  0  0  0  0  0
   -9.6970   -1.3820  -16.9460 C   0  0  0  0  0  0  0  0  0  0  0  0
   -3.9250   -0.3270  -20.1180 C   0  0  0  0  0  0  0  0  0  0  0  0
   -3.0830   -0.3620  -18.8390 C   0  0  0  0  0  0  0  0  0  0  0  0
   -3.1590   -2.3090  -16.9350 S   0  0  1  0  0  0  0  0  0  0  0  0
   -4.9420   -2.5490  -16.9710 C   0  0  0  0  0  0  0  0  0  0  0  0
   -7.6140   -2.4780  -16.5840 C   0  0  0  0  0  0  0  0  0  0  0  0
   -8.9650   -2.2240  -16.2610 N   0  0  0  0  0  0  0  0  0  0  0  0
   -2.5270   -3.5790  -16.6970 O   0  0  0  0  0  0  0  0  0  0  0  0
   -2.7930   -1.6740  -18.3650 N   0  0  0  0  0  0  0  0  0  0  0  0
   -7.8480   -1.0900  -18.5460 C   0  0  0  0  0  0  0  0  0  0  0  0
   -1.9870   -2.4570  -19.2820 C   0  0  0  0  0  0  0  0  0  0  0  0
   -0.7760   -1.7540  -19.8490 C   0  0  0  0  0  0  0  0  0  0  0  0
   -2.8880   -1.2580  -15.9630 O   0  0  0  0  0  0  0  0  0  0  0  0
   -7.3060   -4.0020  -14.8960 O   0  0  0  0  0  0  0  0  0  0  0  0
   -5.7090   -1.9610  -17.9090 C   0  0  0  0  0  0  0  0  0  0  0  0
  1  4  1  0
  2  5  1  0
  3 10  2  0
  4 18  2  0
  5 11  2  0
  6  7  1  0
  7 13  1  0
  8 12  2  0
  8 17  2  0
  9  8  1  0
  9  1  2  0
 10 11  1  0
 10  4  1  0
  8 13  1  6
 14  2  2  0
 14  3  1  0
 15 13  1  0
 16 15  1  0
 19  3  1  0
 19  9  1  0
M  END
$$$$

     RDKit          3D

 20 21  0  0  0  0  0  0  0  0999 V2000
   -6.3830   -2.5000  -16.7280 C   0  0  0  0  0  0  0  0  0  0  0  0
   -9.3420   -2.5960  -16.0790 O   0  0  0  0  0  0  0  0  0  0  0  0
   -3.6840   -2.1160  -16.3380 C   0  0  0  0  0  0  0  0  0  0  0  0
   -8.0220   -4.4370  -15.2040 O   0  0  0  0  0  0  0  0  0  0  0  0
   -8.1040   -0.6690  -17.7390 C   0  0  0  0  0  0  0  0  0  0  0  0
   -3.9620   -0.8780  -18.0500 C   0  0  0  0  0  0  0  0  0  0  0  0
   -7.4830   -2.1220  -17.8010 C   0  0  2  0  0  0  0  0  0  0  0  0
   -5.1350   -1.1780  -18.1290 C   0  0  0  0  0  0  0  0  0  0  0  0
   -3.4790   -0.1310  -20.8550 N   0  0  0  0  0  0  0  0  0  0  0  0
   -2.1930   -1.5620  -16.5190 C   0  0  0  0  0  0  0  0  0  0  0  0
   -0.5870   -1.9350  -18.2910 O   0  0  0  0  0  0  0  0  0  0  0  0
   -1.2860   -0.7490  -20.7020 O   0  0  0  0  0  0  0  0  0  0  0  0
   -8.5130   -3.4200  -15.6980 C   0  0  0  0  0  0  0  0  0  0  0  0
   -1.6050   -0.9510  -17.7980 C   0  0  1  0  0  0  0  0  0  0  0  0
   -9.0580   -4.0370  -17.9960 O   0  0  0  0  0  0  0  0  0  0  0  0
   -8.9230   -2.9710  -17.2200 C   0  0  2  0  0  0  0  0  0  0  0  0
   -5.0760   -2.0140  -17.0720 C   0  0  0  0  0  0  0  0  0  0  0  0
   -5.8500   -3.2290  -15.6390 C   0  0  0  0  0  0  0  0  0  0  0  0
   -2.2910   -0.6930  -20.2340 C   0  0  0  0  0  0  0  0  0  0  0  0
   -2.6750   -1.2160  -18.7710 C   0  0  2  0  0  0  0  0  0  0  0  0
  1 18  1  0
  2 13  1  0
  7  5  1  1
  7 16  1  0
  7  1  1  0
  8  6  1  0
  8 17  1  0
  9 19  1  0
 10  3  1  0
 12 19  2  0
 13  4  2  0
 14 11  1  6
 14 10  1  0
 16 15  1  1
 16  2  1  0
 16 13  1  0
 17  1  2  3
 17  3  1  0
 20 19  1  6
 20  6  1  0
 20 14  1  0
M  END
$$$$

     RDKit          3D

 19 20  0  0  0  0  0  0  0  0999 V2000
   -2.2260   -2.6750  -15.6660 C   0  0  0  0  0  0  0  0  0  0  0  0
   -8.2620   -0.7510  -18.5550 N   0  0  0  0  0  0  0  0  0  0  0  0
   -3.6010   -1.3860  -19.6620 O   0  0  0  0  0  0  0  0  0  0  0  0
   -1.8780   -2.7740  -17.1570 C   0  0  2  0  0  0  0  0  0  0  0  0
   -7.2640   -1.2360  -18.2940 C   0  0  0  0  0  0  0  0  0  0  0  0
   -5.2220   -2.8060  -16.2250 C   0  0  1  0  0  0  0  0  0  0  0  0
   -4.3310   -3.0500  -17.6770 C   0  0  0  0  0  0  0  0  0  0  0  0
   -7.8090   -2.1970  -16.1290 N   0  0  0  0  0  0  0  0  0  0  0  0
   -0.8200   -1.7560  -17.4450 C   0  0  0  0  0  0  0  0  0  0  0  0
   -6.3190   -2.7020  -17.6420 C   0  0  2  0  0  0  0  0  0  0  0  0
   -9.3160   -0.9400  -17.3850 C   0  0  0  0  0  0  0  0  0  0  0  0
   -3.8360   -1.0090  -18.4050 C   0  0  0  0  0  0  0  0  0  0  0  0
  -10.5770   -0.2200  -17.4970 O   0  0  0  0  0  0  0  0  0  0  0  0
   -5.6680   -4.0540  -15.7640 O   0  0  0  0  0  0  0  0  0  0  0  0
   -5.8230   -2.6150  -19.1340 O   0  0  0  0  0  0  0  0  0  0  0  0
   -1.0050   -1.1840  -15.6650 S   0  0  0  0  0  0  0  0  0  0  0  0
   -9.0290   -1.5860  -16.3780 C   0  0  0  0  0  0  0  0  0  0  0  0
   -6.6650   -1.7120  -17.3430 C   0  0  1  0  0  0  0  0  0  0  0  0
   -3.5190   -2.3150  -17.4720 C   0  0  2  0  0  0  0  0  0  0  0  0
  1 16  1  0
  2  5  2  0
  2 11  1  0
  3 12  1  0
  4  1  1  1
 18  5  1  6
  6 14  1  1
 19  7  1  6
  7  6  1  0
  9  4  1  0
  9 16  1  0
 10 15  1  6
 10  6  1  0
 11 17  1  0
 13 11  2  0
 17  8  2  0
 18 10  1  0
 18  8  1  0
 19 12  1  0
 19  4  1  0
M  END
$$$$

     RDKit          3D

 20 21  0  0  0  0  0  0  0  0999 V2000
   -2.4080   -2.1390  -18.6520 C   0  0  0  0  0  0  0  0  0  0  0  0
   -5.7130   -2.1330  -17.1680 C   0  0  0  0  0  0  0  0  0  0  0  0
   -2.3060   -3.3770  -15.9940 C   0  0  1  0  0  0  0  0  0  0  0  0
   -5.2440   -1.1210  -19.2700 C   0  0  0  0  0  0  0  0  0  0  0  0
   -3.2650   -1.5520  -17.5620 C   0  0  2  0  0  0  0  0  0  0  0  0
   -4.7820   -1.6500  -18.0220 C   0  0  0  0  0  0  0  0  0  0  0  0
   -7.2710   -3.1360  -15.7320 C   0  0  0  0  0  0  0  0  0  0  0  0
   -3.0870   -0.2090  -16.8540 O   0  0  0  0  0  0  0  0  0  0  0  0
   -2.0520   -0.0170  -19.3510 O   0  0  0  0  0  0  0  0  0  0  0  0
   -2.9760   -2.4850  -15.1460 C   0  0  0  0  0  0  0  0  0  0  0  0
   -6.5500   -1.1260  -19.6440 C   0  0  0  0  0  0  0  0  0  0  0  0
   -7.1260   -2.2560  -16.8750 C   0  0  2  0  0  0  0  0  0  0  0  0
   -1.3250   -1.2370  -19.1090 C   0  0  0  0  0  0  0  0  0  0  0  0
   -3.2100   -2.4670  -16.5590 C   0  0  2  0  0  0  0  0  0  0  0  0
   -0.9920   -3.0130  -16.1410 O   0  0  0  0  0  0  0  0  0  0  0  0
   -7.6410   -1.4030  -19.0040 C   0  0  0  0  0  0  0  0  0  0  0  0
   -8.1980   -4.0340  -15.6230 N   0  0  0  0  0  0  0  0  0  0  0  0
   -7.9460   -4.8530  -14.6700 O   0  0  0  0  0  0  0  0  0  0  0  0
   -6.4010   -3.0450  -14.9020 O   0  0  0  0  0  0  0  0  0  0  0  0
   -7.9660   -1.9180  -17.7820 C   0  0  0  0  0  0  0  0  0  0  0  0
  1  5  1  0
  2 12  1  0
  3 15  1  6
  3 10  1  0
  4  6  1  0
  5  8  1  1
  6  5  1  0
  6  2  2  0
  7 17  1  0
  7 19  2  0
  9 13  1  0
 11  4  2  0
 11 16  1  0
 12  7  1  6
 13  1  1  0
 14  5  1  0
 14  3  1  0
 14 10  1  1
 16 20  2  0
 17 18  1  0
 20 12  1  0
M  END
$$$$

     RDKit          3D

 22 23  0  0  0  0  0  0  0  0999 V2000
   -9.4810   -3.4300  -17.5450 C   0  0  0  0  0  0  0  0  0  0  0  0
   -1.3270   -1.5680  -20.3250 C   0  0  0  0  0  0  0  0  0  0  0  0
  -10.3000   -2.3970  -17.0610 C   0  0  0  0  0  0  0  0  0  0  0  0
   -7.6650   -1.8160  -17.8040 C   0  0  0  0  0  0  0  0  0  0  0  0
   -1.7440   -4.3910  -18.0610 O   0  0  0  0  0  0  0  0  0  0  0  0
   -9.8440   -1.1040  -17.0540 C   0  0  0  0  0  0  0  0  0  0  0  0
   -8.2130   -3.0730  -17.9530 C   0  0  0  0  0  0  0  0  0  0  0  0
   -5.2040   -1.3370  -17.1750 C   0  0  0  0  0  0  0  0  0  0  0  0
   -2.4920   -0.9640  -19.6050 C   0  0  2  0  0  0  0  0  0  0  0  0
   -4.5230   -2.6040  -17.0420 C   0  0  0  0  0  0  0  0  0  0  0  0
   -2.0340   -3.5510  -16.0270 O   0  0  0  0  0  0  0  0  0  0  0  0
   -8.4890   -0.8030  -17.3510 C   0  0  0  0  0  0  0  0  0  0  0  0
   -1.4770   -0.5940  -17.4260 C   0  0  0  0  0  0  0  0  0  0  0  0
   -6.4010   -1.4380  -18.1450 C   0  0  0  0  0  0  0  0  0  0  0  0
   -2.2740    0.5240  -19.4800 C   0  0  0  0  0  0  0  0  0  0  0  0
   -7.4800   -4.0500  -18.3670 F   0  0  0  0  0  0  0  0  0  0  0  0
  -10.6560   -0.1340  -16.4800 F   0  0  0  0  0  0  0  0  0  0  0  0
   -2.5060   -1.3520  -18.2030 N   0  0  0  0  0  0  0  0  0  0  0  0
   -4.9550   -3.5940  -16.3790 O   0  0  0  0  0  0  0  0  0  0  0  0
   -2.2630   -3.6010  -17.2360 C   0  0  0  0  0  0  0  0  0  0  0  0
   -1.6340    0.7590  -18.1380 C   0  0  0  0  0  0  0  0  0  0  0  0
   -3.2440   -2.6520  -17.8190 C   0  0  1  0  0  0  0  0  0  0  0  0
  1  3  2  0
  3  6  1  0
  4 12  1  0
  5 20  2  0
  6 17  1  0
  7  4  2  0
  7  1  1  0
  8 10  1  0
  9  2  1  6
  9 15  1  0
  9 18  1  0
 10 19  2  0
 12  6  2  0
 14  4  1  0
 14  8  1  0
 15 21  1  0
 16  7  1  0
 22 18  1  1
 18 13  1  0
 20 11  1  0
 21 13  1  0
 22 20  1  0
 22 10  1  0
M  END
$$$$

     RDKit          3D

 20 21  0  0  0  0  0  0  0  0999 V2000
   -6.6200   -0.9160  -19.1430 O   0  0  0  0  0  0  0  0  0  0  0  0
   -4.2180   -1.0130  -17.9390 C   0  0  0  0  0  0  0  0  0  0  0  0
   -7.4850   -3.9310  -15.5210 O   0  0  0  0  0  0  0  0  0  0  0  0
   -2.9650   -0.4120  -17.8440 C   0  0  0  0  0  0  0  0  0  0  0  0
   -3.7090   -2.3040  -15.9500 C   0  0  0  0  0  0  0  0  0  0  0  0
    0.5280   -0.4750  -18.3620 C   0  0  0  0  0  0  0  0  0  0  0  0
   -6.6380   -3.2140  -19.3620 N   0  0  0  0  0  0  0  0  0  0  0  0
   -4.2550   -3.0630  -15.0470 F   0  0  0  0  0  0  0  0  0  0  0  0
    0.0860   -1.1530  -17.2200 C   0  0  1  0  0  0  0  0  0  0  0  0
   -9.7280   -4.1790  -17.4830 C   0  0  0  0  0  0  0  0  0  0  0  0
   -4.6880   -1.7660  -16.8440 C   0  0  0  0  0  0  0  0  0  0  0  0
   -2.4190   -1.8820  -15.9730 C   0  0  0  0  0  0  0  0  0  0  0  0
   -6.0760   -1.6490  -16.4740 C   0  0  0  0  0  0  0  0  0  0  0  0
   -0.7220   -0.1920  -16.7290 C   0  0  0  0  0  0  0  0  0  0  0  0
   -0.4660   -1.1900  -19.0720 C   0  0  0  0  0  0  0  0  0  0  0  0
   -7.0340   -2.3340  -17.1780 C   0  0  0  0  0  0  0  0  0  0  0  0
   -2.0520   -0.8530  -16.8330 C   0  0  0  0  0  0  0  0  0  0  0  0
   -7.0020   -2.0710  -18.5920 S   0  0  0  0  0  0  0  0  0  0  0  0
   -7.8970   -3.2240  -16.4370 C   0  0  0  0  0  0  0  0  0  0  0  0
   -9.2120   -3.1330  -16.7920 O   0  0  0  0  0  0  0  0  0  0  0  0
  1 18  2  0
  2  4  2  0
  2 11  1  0
  4 17  1  0
  5  8  1  0
  6  9  1  0
  9 14  1  1
 10 20  1  0
 11 13  1  0
 11  5  2  0
 12  5  1  0
 15  6  1  0
 15  9  1  0
 16 13  1  0
 16 19  1  0
 17 14  1  0
 17 12  2  0
 18  7  1  6
 18 16  1  0
 19  3  2  0
 20 19  1  0
M  END
$$$$

     RDKit          3D

 20 22  0  0  0  0  0  0  0  0999 V2000
   -6.2660   -2.9620  -15.9280 C   0  0  0  0  0  0  0  0  0  0  0  0
   -7.6170   -3.3530  -16.1540 C   0  0  0  0  0  0  0  0  0  0  0  0
   -7.6460   -2.2510  -18.5150 C   0  0  0  0  0  0  0  0  0  0  0  0
   -3.2990   -1.8090  -16.0010 C   0  0  0  0  0  0  0  0  0  0  0  0
   -2.0190   -1.8800  -18.4330 N   0  0  0  0  0  0  0  0  0  0  0  0
   -2.9930   -0.4390  -20.2430 C   0  0  0  0  0  0  0  0  0  0  0  0
   -8.3610   -2.8660  -17.4280 C   0  0  0  0  0  0  0  0  0  0  0  0
   -1.1640   -1.6880  -17.1540 C   0  0  0  0  0  0  0  0  0  0  0  0
   -1.5230   -0.6130  -19.5300 C   0  0  2  0  0  0  0  0  0  0  0  0
   -5.6030   -2.2660  -17.1260 C   0  0  0  0  0  0  0  0  0  0  0  0
   -8.2720   -4.1580  -15.2730 O   0  0  0  0  0  0  0  0  0  0  0  0
   -0.7640   -1.5320  -20.4620 C   0  0  0  0  0  0  0  0  0  0  0  0
   -1.9750   -2.4630  -16.0970 C   0  0  0  0  0  0  0  0  0  0  0  0
   -6.3130   -1.9450  -18.3960 C   0  0  0  0  0  0  0  0  0  0  0  0
   -3.3880   -0.1260  -21.1850 O   0  0  0  0  0  0  0  0  0  0  0  0
   -3.8320   -0.2600  -18.9880 C   0  0  0  0  0  0  0  0  0  0  0  0
   -3.4680   -1.6180  -18.4320 C   0  0  2  0  0  0  0  0  0  0  0  0
   -5.5570   -3.0730  -14.8320 O   0  0  0  0  0  0  0  0  0  0  0  0
   -4.1160   -2.0050  -17.0810 C   0  0  1  0  0  0  0  0  0  0  0  0
   -9.6520   -3.1050  -17.5400 O   0  0  0  0  0  0  0  0  0  0  0  0
  1 18  1  0
  2  1  2  0
  2 11  1  0
  3 14  1  0
  3  7  2  0
  5 17  1  0
  5  8  1  0
  6  9  1  0
  6 16  1  0
  7  2  1  0
  8 13  1  0
  9 12  1  6
  9  5  1  0
 10  1  1  0
 13  4  1  0
 14 10  2  0
 15  6  2  0
 17 16  1  1
 17 19  1  0
 19 10  1  1
 19  4  1  0
 20  7  1  0
M  END
$$$$

     RDKit          3D

 21 23  0  0  0  0  0  0  0  0999 V2000
   -9.0980   -3.5890  -16.5230 O   0  0  0  0  0  0  0  0  0  0  0  0
   -2.4550   -2.9990  -17.6490 C   0  0  1  0  0  0  0  0  0  0  0  0
   -6.4690   -3.1500  -19.5160 N   0  0  0  0  0  0  0  0  0  0  0  0
   -5.3680   -1.2930  -18.7270 C   0  0  0  0  0  0  0  0  0  0  0  0
   -1.4620   -4.0220  -17.3690 C   0  0  0  0  0  0  0  0  0  0  0  0
   -3.4770   -0.9580  -17.9320 C   0  0  0  0  0  0  0  0  0  0  0  0
   -9.1410   -2.4270  -17.0460 C   0  0  0  0  0  0  0  0  0  0  0  0
   -6.3180   -2.1860  -18.4450 C   0  0  1  0  0  0  0  0  0  0  0  0
   -1.3630   -1.9830  -18.8710 C   0  0  0  0  0  0  0  0  0  0  0  0
   -8.7360   -2.3070  -18.2400 O   0  0  0  0  0  0  0  0  0  0  0  0
   -2.0810   -1.7580  -17.9070 C   0  0  2  0  0  0  0  0  0  0  0  0
   -4.3690   -0.9970  -17.8620 C   0  0  0  0  0  0  0  0  0  0  0  0
   -0.4410   -0.6090  -16.1200 C   0  0  0  0  0  0  0  0  0  0  0  0
   -9.7400   -1.5990  -16.5170 O   0  0  0  0  0  0  0  0  0  0  0  0
   -1.1220   -1.4520  -16.6250 C   0  0  1  0  0  0  0  0  0  0  0  0
   -3.9270   -3.3660  -17.4860 C   0  0  0  0  0  0  0  0  0  0  0  0
   -7.7360   -1.6780  -18.0550 C   0  0  0  0  0  0  0  0  0  0  0  0
   -5.3590   -0.8960  -19.7580 O   0  0  0  0  0  0  0  0  0  0  0  0
   -2.2700   -2.1150  -15.4740 O   0  0  0  0  0  0  0  0  0  0  0  0
   -3.2260   -2.7810  -16.1900 C   0  0  2  0  0  0  0  0  0  0  0  0
   -0.3100   -2.9300  -16.9180 C   0  0  0  0  0  0  0  0  0  0  0  0
  2 16  1  6
  2  5  1  0
  2 20  1  0
  4  8  1  0
  4 12  1  0
  5 21  1  0
  6 11  1  0
  6 12  1  0
  7  1  2  0
  7 14  1  0
  8  3  1  6
  8 17  1  0
 10 17  1  0
 10  7  1  0
 11  9  1  6
 11  2  1  0
 11 15  1  0
 15 13  1  1
 15 19  1  0
 18  4  2  0
 20 16  1  6
 20 19  1  0
 21 15  1  0
M  END
$$$$

     RDKit          3D

 17 19  0  0  0  0  0  0  0  0999 V2000
   -9.1920   -4.1780  -18.4820 O   0  0  0  0  0  0  0  0  0  0  0  0
   -7.8220   -1.6190  -18.4270 C   0  0  0  0  0  0  0  0  0  0  0  0
   -9.4380   -3.7350  -17.1570 C   0  0  0  0  0  0  0  0  0  0  0  0
   -5.9470   -2.4170  -16.5760 N   0  0  0  0  0  0  0  0  0  0  0  0
   -4.9480   -3.4620  -15.0900 C   0  0  0  0  0  0  0  0  0  0  0  0
   -4.6110   -2.2910  -16.5440 N   0  0  0  0  0  0  0  0  0  0  0  0
   -6.6280   -1.6360  -17.5000 C   0  0  1  0  0  0  0  0  0  0  0  0
   -6.1450   -3.2710  -15.6030 N   0  0  0  0  0  0  0  0  0  0  0  0
   -1.9570   -2.2690  -17.9170 C   0  0  1  0  0  0  0  0  0  0  0  0
   -5.5020   -1.0790  -18.2540 C   0  0  0  0  0  0  0  0  0  0  0  0
   -8.1920   -1.5730  -17.0180 C   0  0  2  0  0  0  0  0  0  0  0  0
   -1.6100   -3.6190  -17.5290 C   0  0  0  0  0  0  0  0  0  0  0  0
   -9.6140   -2.1660  -17.0120 C   0  0  0  0  0  0  0  0  0  0  0  0
   -1.0610   -2.3520  -19.2490 C   0  0  0  0  0  0  0  0  0  0  0  0
   -2.9510   -1.5120  -17.8070 N   0  0  0  0  0  0  0  0  0  0  0  0
   -4.0670   -2.9570  -15.6680 N   0  0  0  0  0  0  0  0  0  0  0  0
   -4.3410   -1.4860  -17.7010 C   0  0  0  0  0  0  0  0  0  0  0  0
  1  3  1  0
  2 11  1  0
  3 13  1  0
  4  6  1  0
  4  8  1  0
  6 16  1  0
  7  2  1  6
  7 11  1  0
  7  4  1  0
  8  5  1  0
  9 15  1  0
  9 12  1  6
 10 17  2  0
 10  7  1  0
 11 13  1  1
 14  9  1  0
 15 17  1  0
 16  5  2  0
 17  6  1  0
M  END
$$$$

     RDKit          3D

 19 21  0  0  0  0  0  0  0  0999 V2000
   -3.1230   -2.1130  -17.1670 C   0  0  0  0  0  0  0  0  0  0  0  0
   -2.1290   -1.0570  -17.7270 C   0  0  1  0  0  0  0  0  0  0  0  0
   -5.7300   -1.9500  -17.2360 C   0  0  1  0  0  0  0  0  0  0  0  0
   -2.3050    0.3170  -19.7060 O   0  0  0  0  0  0  0  0  0  0  0  0
   -2.9980   -0.0730  -18.5980 C   0  0  2  0  0  0  0  0  0  0  0  0
   -4.4860   -1.4170  -17.3790 C   0  0  2  0  0  0  0  0  0  0  0  0
   -4.7530   -2.8960  -15.1940 O   0  0  0  0  0  0  0  0  0  0  0  0
   -1.7300    0.0010  -16.7060 O   0  0  0  0  0  0  0  0  0  0  0  0
   -8.1340   -2.1740  -17.6090 C   0  0  0  0  0  0  0  0  0  0  0  0
   -9.1450   -4.0320  -16.3900 O   0  0  0  0  0  0  0  0  0  0  0  0
   -3.5160   -0.2500  -20.2460 C   0  0  0  0  0  0  0  0  0  0  0  0
   -4.2710   -0.9750  -18.7570 O   0  0  0  0  0  0  0  0  0  0  0  0
   -5.8800   -2.7090  -16.0630 C   0  0  2  0  0  0  0  0  0  0  0  0
   -7.0820   -3.3930  -15.7360 C   0  0  0  0  0  0  0  0  0  0  0  0
   -7.2460   -4.0520  -14.7600 O   0  0  0  0  0  0  0  0  0  0  0  0
   -6.9320   -1.5070  -17.9440 C   0  0  0  0  0  0  0  0  0  0  0  0
   -3.9790   -0.1440  -21.3030 O   0  0  0  0  0  0  0  0  0  0  0  0
   -9.2450   -1.9450  -18.3320 O   0  0  0  0  0  0  0  0  0  0  0  0
   -8.1350   -3.1880  -16.6590 C   0  0  2  0  0  0  0  0  0  0  0  0
  2  1  1  0
  2  8  1  1
  3 16  1  1
  3 13  1  0
  5  4  1  1
  5 11  1  0
  5  2  1  0
  6  3  1  0
  6  1  1  6
  9 19  1  0
 11  4  1  0
 12  5  1  0
 12  6  1  0
 13 14  1  0
 13  7  1  6
 14 15  2  0
 16  9  2  0
 17 11  2  0
 18  9  1  0
 19 10  1  1
 19 14  1  0
M  END
$$$$

     RDKit          3D

 19 20  0  0  0  0  0  0  0  0999 V2000
   -7.1020   -2.7650  -16.3840 C   0  0  2  0  0  0  0  0  0  0  0  0
   -5.5860   -1.4670  -18.1900 C   0  0  2  0  0  0  0  0  0  0  0  0
   -7.6790   -3.2480  -15.1390 C   0  0  0  0  0  0  0  0  0  0  0  0
  -10.5160   -2.0330  -17.7920 O   0  0  0  0  0  0  0  0  0  0  0  0
   -1.6650   -3.9050  -17.2820 O   0  0  0  0  0  0  0  0  0  0  0  0
   -6.7770   -2.1530  -19.0150 C   0  0  2  0  0  0  0  0  0  0  0  0
   -2.7280   -3.4020  -16.7670 C   0  0  0  0  0  0  0  0  0  0  0  0
   -4.6400   -0.8540  -19.0720 C   0  0  0  0  0  0  0  0  0  0  0  0
   -8.0510   -1.2320  -17.0780 O   0  0  0  0  0  0  0  0  0  0  0  0
   -7.2470   -4.4780  -14.9780 O   0  0  0  0  0  0  0  0  0  0  0  0
   -4.7490   -2.6130  -16.4810 C   0  0  0  0  0  0  0  0  0  0  0  0
   -3.8710   -3.0780  -17.5270 O   0  0  0  0  0  0  0  0  0  0  0  0
   -5.7970   -1.8040  -16.9340 C   0  0  2  0  0  0  0  0  0  0  0  0
   -4.2040   -2.5650  -15.3310 N   0  0  0  0  0  0  0  0  0  0  0  0
   -3.1110   -0.7060  -19.3570 S   0  0  0  0  0  0  0  0  0  0  0  0
   -7.6900   -2.5800  -17.7000 C   0  0  2  0  0  0  0  0  0  0  0  0
   -9.5630   -1.3600  -17.0790 C   0  0  0  0  0  0  0  0  0  0  0  0
   -6.6670   -3.2440  -19.5400 O   0  0  0  0  0  0  0  0  0  0  0  0
   -2.9510   -3.1830  -15.3770 C   0  0  0  0  0  0  0  0  0  0  0  0
  1  3  1  1
  2  8  1  6
  2 13  1  0
  3 10  1  0
  4 17  1  0
  5  7  2  0
  6 18  1  1
  6  2  1  0
  6 16  1  0
  7 19  1  0
 11 14  2  0
 12  7  1  0
 12 11  1  0
 13 11  1  6
 13  1  1  0
 15  8  2  0
 16  9  1  1
 16  1  1  0
 17  9  1  0
 19 14  1  0
M  END
$$$$

     RDKit          3D

 22 25  0  0  0  0  0  0  0  0999 V2000
   -6.6300   -2.2610  -19.3430 C   0  0  0  0  0  0  0  0  0  0  0  0
   -7.2070   -2.1950  -18.0440 C   0  0  2  0  0  0  0  0  0  0  0  0
   -2.0180   -2.0120  -19.0320 C   0  0  0  0  0  0  0  0  0  0  0  0
   -6.6680   -2.6290  -16.8280 N   0  0  0  0  0  0  0  0  0  0  0  0
   -3.6030   -2.8140  -14.8580 C   0  0  0  0  0  0  0  0  0  0  0  0
   -4.9170   -2.9440  -15.3840 C   0  0  0  0  0  0  0  0  0  0  0  0
   -0.4830   -3.5780  -20.2330 C   0  0  0  0  0  0  0  0  0  0  0  0
    0.3020   -1.7850  -17.1680 O   0  0  0  0  0  0  0  0  0  0  0  0
   -2.1590   -1.5150  -17.4450 C   0  0  1  0  0  0  0  0  0  0  0  0
   -1.4550   -1.9740  -16.0300 N   0  0  0  0  0  0  0  0  0  0  0  0
   -2.7040   -2.1770  -15.7690 C   0  0  0  0  0  0  0  0  0  0  0  0
    0.2650   -1.2380  -20.0860 C   0  0  0  0  0  0  0  0  0  0  0  0
   -8.9420   -2.6590  -16.6570 C   0  0  0  0  0  0  0  0  0  0  0  0
   -0.9990   -2.0060  -19.5340 C   0  0  1  0  0  0  0  0  0  0  0  0
   -5.2450   -2.5740  -16.5490 C   0  0  0  0  0  0  0  0  0  0  0  0
   -8.5010   -1.8230  -17.6930 N   0  0  0  0  0  0  0  0  0  0  0  0
   -9.1980   -0.9770  -18.1840 O   0  0  0  0  0  0  0  0  0  0  0  0
   -4.4720   -1.7920  -17.3460 C   0  0  0  0  0  0  0  0  0  0  0  0
   -0.9340   -1.9280  -17.1490 C   0  0  0  0  0  0  0  0  0  0  0  0
   -3.2240   -1.7620  -16.6170 C   0  0  0  0  0  0  0  0  0  0  0  0
   -7.7260   -3.7400  -15.0550 O   0  0  0  0  0  0  0  0  0  0  0  0
   -7.7570   -3.1500  -16.0830 C   0  0  0  0  0  0  0  0  0  0  0  0
  2  1  1  6
  2 16  1  0
  2  4  1  0
  4 15  1  0
  4 22  1  0
  6  5  2  0
 14  7  1  6
  8 19  2  0
  9  3  1  1
  9 19  1  0
  9 20  1  0
  9 10  1  0
 10 11  1  0
 11  5  1  0
 12 14  1  0
 13 22  1  0
 14  3  1  0
 15  6  1  0
 16 13  1  0
 17 16  1  0
 18 20  1  0
 18 15  2  0
 19 10  1  0
 20 11  2  0
 22 21  2  0
M  END
$$$$

     RDKit          3D

 20 22  0  0  0  0  0  0  0  0999 V2000
   -8.3140   -2.7910  -16.9820 C   0  0  2  0  0  0  0  0  0  0  0  0
   -9.0030   -0.9300  -18.0380 O   0  0  0  0  0  0  0  0  0  0  0  0
   -1.7790    0.3490  -18.0070 C   0  0  0  0  0  0  0  0  0  0  0  0
   -3.6470   -2.4610  -16.4190 C   0  0  0  0  0  0  0  0  0  0  0  0
   -6.5040   -1.7280  -18.7980 S   0  0  0  0  0  0  0  0  0  0  0  0
   -1.5690   -1.5250  -15.9010 C   0  0  0  0  0  0  0  0  0  0  0  0
   -2.6330   -1.5530  -16.7770 C   0  0  0  0  0  0  0  0  0  0  0  0
   -4.7730   -2.2100  -17.0120 C   0  0  1  0  0  0  0  0  0  0  0  0
   -2.7240   -0.6890  -17.8430 C   0  0  0  0  0  0  0  0  0  0  0  0
   -9.3270   -2.1730  -17.5140 C   0  0  0  0  0  0  0  0  0  0  0  0
   -4.9340   -1.5380  -18.2410 C   0  0  0  0  0  0  0  0  0  0  0  0
   -0.7950    0.5330  -17.0460 C   0  0  0  0  0  0  0  0  0  0  0  0
   -3.8300   -0.7800  -18.6150 C   0  0  0  0  0  0  0  0  0  0  0  0
   -2.7470   -2.3630  -13.9990 O   0  0  0  0  0  0  0  0  0  0  0  0
   -6.0740   -2.7600  -16.5110 C   0  0  0  0  0  0  0  0  0  0  0  0
   -1.7430   -2.3960  -14.6740 C   0  0  0  0  0  0  0  0  0  0  0  0
   -0.6270   -0.4810  -16.0450 C   0  0  0  0  0  0  0  0  0  0  0  0
   -8.5040   -3.6850  -15.9450 N   0  0  0  0  0  0  0  0  0  0  0  0
   -1.0520   -3.3670  -14.4840 O   0  0  0  0  0  0  0  0  0  0  0  0
   -7.0610   -2.4090  -17.2850 C   0  0  2  0  0  0  0  0  0  0  0  0
  1 18  1  1
  2 10  1  0
  3  9  2  0
  3 12  1  0
  5 11  1  0
  5 20  1  0
  6 16  1  0
  7  4  1  0
  7  6  2  0
  8 15  1  6
  8  4  1  0
  9  7  1  0
 10  1  1  0
 11  8  1  0
 12 17  2  0
 13 11  2  0
 13  9  1  0
 16 19  2  0
 16 14  1  0
 17  6  1  0
 20  1  1  0
 20 15  1  6
M  END
$$$$

     RDKit          3D

 19 21  0  0  0  0  0  0  0  0999 V2000
    0.0270   -1.8390  -17.9210 O   0  0  0  0  0  0  0  0  0  0  0  0
   -2.6940   -2.6480  -17.8210 C   0  0  0  0  0  0  0  0  0  0  0  0
   -2.5650   -2.6580  -15.4270 N   0  0  0  0  0  0  0  0  0  0  0  0
   -4.6500   -2.6240  -16.6550 C   0  0  0  0  0  0  0  0  0  0  0  0
   -8.7970   -4.0380  -17.6940 C   0  0  0  0  0  0  0  0  0  0  0  0
   -6.1260   -2.4580  -16.5720 N   0  0  0  0  0  0  0  0  0  0  0  0
   -6.3340   -1.4950  -17.8770 C   0  0  0  0  0  0  0  0  0  0  0  0
   -8.4440   -2.5660  -17.3760 C   0  0  2  0  0  0  0  0  0  0  0  0
   -1.9040   -2.4810  -16.6530 C   0  0  2  0  0  0  0  0  0  0  0  0
   -0.3450   -3.0750  -18.4580 C   0  0  0  0  0  0  0  0  0  0  0  0
   -9.7920   -2.1990  -16.9330 C   0  0  0  0  0  0  0  0  0  0  0  0
   -4.6430   -2.9000  -14.4280 O   0  0  0  0  0  0  0  0  0  0  0  0
   -4.0150   -2.6230  -17.8700 N   0  0  0  0  0  0  0  0  0  0  0  0
   -7.5730   -3.5280  -15.2310 O   0  0  0  0  0  0  0  0  0  0  0  0
   -1.7260   -2.8240  -19.0760 C   0  0  0  0  0  0  0  0  0  0  0  0
   -7.8350   -1.2150  -17.9670 C   0  0  0  0  0  0  0  0  0  0  0  0
   -7.4820   -2.6410  -16.1730 C   0  0  0  0  0  0  0  0  0  0  0  0
   -4.0000   -2.7800  -15.4290 C   0  0  0  0  0  0  0  0  0  0  0  0
   -0.9540   -1.3510  -16.8520 C   0  0  0  0  0  0  0  0  0  0  0  0
  1 19  1  0
  2  9  1  0
  4  6  1  0
  4 18  1  0
  8  5  1  6
  6 17  1  0
  7  6  1  0
  8 11  1  0
  8 17  1  0
  9 19  1  1
  9  3  1  0
 10  1  1  0
 13  2  2  0
 13  4  1  0
 15 10  1  0
 15  2  1  0
 16  7  1  0
 16  8  1  0
 17 14  2  0
 18  3  1  0
 18 12  2  0
M  END
$$$$

     RDKit          3D

 19 21  0  0  0  0  0  0  0  0999 V2000
    0.7940   -2.7610  -19.0180 C   0  0  0  0  0  0  0  0  0  0  0  0
    2.0140   -0.8910  -19.3600 N   0  0  0  0  0  0  0  0  0  0  0  0
   -6.7000   -1.9760  -17.4740 C   0  0  0  0  0  0  0  0  0  0  0  0
   -7.7010   -4.3130  -15.1470 O   0  0  0  0  0  0  0  0  0  0  0  0
   -2.8310   -2.5990  -17.3810 C   0  0  0  0  0  0  0  0  0  0  0  0
    0.8900   -1.6410  -19.9630 C   0  0  2  0  0  0  0  0  0  0  0  0
   -8.1370   -1.7400  -17.7400 C   0  0  0  0  0  0  0  0  0  0  0  0
   -0.1030   -2.2560  -18.0270 O   0  0  0  0  0  0  0  0  0  0  0  0
   -5.1790   -1.9170  -17.7690 C   0  0  0  0  0  0  0  0  0  0  0  0
   -7.7070   -3.2450  -15.9660 C   0  0  0  0  0  0  0  0  0  0  0  0
   -2.4780   -1.7070  -18.3900 C   0  0  0  0  0  0  0  0  0  0  0  0
   -6.7340   -2.6570  -16.1300 N   0  0  0  0  0  0  0  0  0  0  0  0
   -4.7590   -1.0980  -18.7730 C   0  0  0  0  0  0  0  0  0  0  0  0
   -3.4050   -0.9520  -19.0940 C   0  0  0  0  0  0  0  0  0  0  0  0
   -4.2040   -2.6970  -16.9550 C   0  0  0  0  0  0  0  0  0  0  0  0
   -8.7640   -2.9770  -16.8350 O   0  0  0  0  0  0  0  0  0  0  0  0
   -9.0140   -0.7990  -17.8270 O   0  0  0  0  0  0  0  0  0  0  0  0
   -1.0880   -1.7000  -18.7500 C   0  0  0  0  0  0  0  0  0  0  0  0
   -0.5410   -1.0980  -19.9330 C   0  0  0  0  0  0  0  0  0  0  0  0
  1  8  1  0
  3  9  1  0
  3 12  1  0
  5 15  2  0
  6 19  1  0
  6  2  1  1
  6  1  1  0
  7  3  1  0
  7 16  1  0
  9 15  1  0
 10  4  2  0
 11  5  1  0
 12 10  1  0
 13  9  2  0
 14 13  1  0
 14 11  2  0
 16 10  1  0
 17  7  2  0
 18 11  1  0
 18  8  1  0
 19 18  1  0
M  END
$$$$

     RDKit          3D

 26 31  0  0  0  0  0  0  0  0999 V2000
   -4.7110   -1.1690  -18.6810 N   0  0  0  0  0  0  0  0  0  0  0  0
   -6.1490   -2.9850  -16.1110 C   0  0  0  0  0  0  0  0  0  0  0  0
   -2.8740   -1.1030  -19.9230 O   0  0  0  0  0  0  0  0  0  0  0  0
   -2.1300   -2.3990  -16.3690 C   0  0  1  0  0  0  0  0  0  0  0  0
   -2.8080   -1.3730  -17.4210 C   0  0  1  0  0  0  0  0  0  0  0  0
   -0.0460   -0.9590  -18.7390 C   0  0  1  0  0  0  0  0  0  0  0  0
   -3.1800   -3.3370  -15.8510 C   0  0  0  0  0  0  0  0  0  0  0  0
   -4.9980   -2.0670  -16.7270 C   0  0  1  0  0  0  0  0  0  0  0  0
    2.6150   -1.2280  -19.5500 O   0  0  0  0  0  0  0  0  0  0  0  0
   -1.3910   -3.2500  -16.9510 C   0  0  0  0  0  0  0  0  0  0  0  0
   -3.4850   -4.3490  -16.5250 F   0  0  0  0  0  0  0  0  0  0  0  0
    0.6210   -2.6500  -17.4010 C   0  0  0  0  0  0  0  0  0  0  0  0
   -3.0490   -3.3380  -14.7890 O   0  0  0  0  0  0  0  0  0  0  0  0
   -1.7520   -0.9530  -18.7710 C   0  0  2  0  0  0  0  0  0  0  0  0
    0.9960   -1.6400  -18.0320 N   0  0  0  0  0  0  0  0  0  0  0  0
    2.3200   -1.1870  -18.1230 C   0  0  0  0  0  0  0  0  0  0  0  0
   -0.7200   -3.2000  -18.1660 C   0  0  2  0  0  0  0  0  0  0  0  0
   -3.9600   -1.6030  -17.6750 C   0  0  1  0  0  0  0  0  0  0  0  0
   -6.2280   -2.1570  -17.3090 N   0  0  0  0  0  0  0  0  0  0  0  0
   -6.0330   -1.4300  -18.5820 C   0  0  0  0  0  0  0  0  0  0  0  0
   -4.0570   -0.7120  -19.7430 C   0  0  0  0  0  0  0  0  0  0  0  0
   -0.9150   -2.1180  -19.1530 C   0  0  2  0  0  0  0  0  0  0  0  0
   -0.3380   -2.1060  -20.4090 O   0  0  0  0  0  0  0  0  0  0  0  0
   -6.7650   -1.2810  -19.6130 O   0  0  0  0  0  0  0  0  0  0  0  0
    3.1340   -0.4120  -17.4680 O   0  0  0  0  0  0  0  0  0  0  0  0
   -6.3280   -3.7340  -15.3510 O   0  0  0  0  0  0  0  0  0  0  0  0
  1 20  1  0
 18  1  1  1
  2 26  2  0
  3 21  1  0
 14  3  1  1
  4  7  1  6
  5  4  1  6
  6 15  1  1
  7 13  2  0
  8  2  1  6
  9 16  2  0
 10  4  1  0
 11  7  1  0
 14  6  1  0
 14  5  1  0
 15 12  1  0
 16 15  1  0
 16 25  1  0
 17 12  1  1
 17 10  1  0
 18  5  1  0
 18  8  1  0
 19  8  1  0
 19  2  1  0
 20 19  1  0
 21  1  1  0
 22 14  1  0
 22  6  1  0
 22 17  1  0
 22 23  1  6
 24 20  2  0
M  END
$$$$

     RDKit          3D

 22 23  0  0  0  0  0  0  0  0999 V2000
   -2.8150   -2.0380  -16.4210 C   0  0  1  0  0  0  0  0  0  0  0  0
   -0.2990    0.1330  -15.8470 O   0  0  0  0  0  0  0  0  0  0  0  0
   -8.2820   -3.9900  -15.5220 N   0  0  0  0  0  0  0  0  0  0  0  0
   -9.3610   -1.3700  -16.4570 F   0  0  0  0  0  0  0  0  0  0  0  0
   -4.9720   -2.8080  -15.8320 N   0  0  0  0  0  0  0  0  0  0  0  0
   -7.3130   -2.9070  -15.2850 C   0  0  0  0  0  0  0  0  0  0  0  0
   -8.7060   -2.0900  -17.3210 C   0  0  2  0  0  0  0  0  0  0  0  0
   -6.2750   -1.8570  -17.3950 C   0  0  0  0  0  0  0  0  0  0  0  0
    0.1810   -2.3210  -17.9640 C   0  0  0  0  0  0  0  0  0  0  0  0
   -1.2630   -2.5210  -18.0300 C   0  0  2  0  0  0  0  0  0  0  0  0
   -4.2840   -2.0560  -16.6150 C   0  0  0  0  0  0  0  0  0  0  0  0
   -4.9630   -1.4210  -17.6860 C   0  0  0  0  0  0  0  0  0  0  0  0
   -1.9980   -1.6490  -17.1870 C   0  0  1  0  0  0  0  0  0  0  0  0
   -1.1240    0.6180  -16.8700 C   0  0  0  0  0  0  0  0  0  0  0  0
   -8.8060   -3.6120  -17.1840 C   0  0  2  0  0  0  0  0  0  0  0  0
   -6.2150   -2.6990  -16.2420 C   0  0  1  0  0  0  0  0  0  0  0  0
   -2.1330   -0.2430  -17.3540 O   0  0  0  0  0  0  0  0  0  0  0  0
   -1.5870   -4.0110  -17.8500 C   0  0  0  0  0  0  0  0  0  0  0  0
   -7.5990   -1.5310  -18.0570 C   0  0  0  0  0  0  0  0  0  0  0  0
   -1.6080   -2.2120  -19.3970 O   0  0  0  0  0  0  0  0  0  0  0  0
   -2.4130   -2.3790  -15.2370 O   0  0  0  0  0  0  0  0  0  0  0  0
   -9.6140   -4.3300  -16.9700 O   0  0  0  0  0  0  0  0  0  0  0  0
  1 21  1  1
  3  6  1  0
  7 15  1  0
  7  4  1  1
  8 16  1  0
 10  9  1  6
 10 18  1  0
 10 13  1  0
 11  1  1  0
 11  5  2  0
 12  8  2  0
 12 11  1  0
 13 17  1  6
 13  1  1  0
 14  2  1  0
 15 22  1  1
 15  3  1  0
 16  5  1  0
 16  6  1  1
 17 14  1  0
 19  8  1  0
 19  7  1  0
 20 10  1  0
M  END
$$$$

     RDKit          3D

 20 22  0  0  0  0  0  0  0  0999 V2000
   -7.9390   -1.7660  -18.2940 C   0  0  0  0  0  0  0  0  0  0  0  0
   -4.5740   -2.6550  -16.8770 C   0  0  0  0  0  0  0  0  0  0  0  0
   -7.0400   -3.0290  -15.9510 C   0  0  0  0  0  0  0  0  0  0  0  0
   -4.1220   -0.7120  -19.4960 O   0  0  0  0  0  0  0  0  0  0  0  0
   -3.5280   -1.6590  -17.3440 C   0  0  0  0  0  0  0  0  0  0  0  0
   -2.4880   -1.7940  -16.3920 C   0  0  0  0  0  0  0  0  0  0  0  0
   -1.3310   -0.9830  -16.3090 C   0  0  0  0  0  0  0  0  0  0  0  0
   -3.3800   -0.7270  -18.4220 C   0  0  0  0  0  0  0  0  0  0  0  0
   -2.2310    0.1980  -18.3410 C   0  0  0  0  0  0  0  0  0  0  0  0
   -6.6880   -3.7770  -15.1100 O   0  0  0  0  0  0  0  0  0  0  0  0
   -2.1260    1.1160  -19.4080 F   0  0  0  0  0  0  0  0  0  0  0  0
   -8.3650   -2.4950  -15.9710 N   0  0  0  0  0  0  0  0  0  0  0  0
   -8.7400   -1.8460  -17.0590 C   0  0  0  0  0  0  0  0  0  0  0  0
   -3.9990   -3.2990  -15.9430 C   0  0  0  0  0  0  0  0  0  0  0  0
  -10.1210   -1.3200  -17.0490 O   0  0  0  0  0  0  0  0  0  0  0  0
   -6.7010   -2.4300  -18.2480 C   0  0  2  0  0  0  0  0  0  0  0  0
   -1.1050    0.0270  -17.0710 C   0  0  0  0  0  0  0  0  0  0  0  0
   -6.1930   -2.9490  -19.3810 N   0  0  0  0  0  0  0  0  0  0  0  0
   -2.8480   -2.8330  -15.6130 N   0  0  0  0  0  0  0  0  0  0  0  0
   -6.0590   -2.6520  -17.0330 C   0  0  2  0  0  0  0  0  0  0  0  0
  1 16  1  0
  1 13  1  0
  2 14  1  0
  3 10  2  0
  4  8  1  0
  5  2  2  0
  5  6  1  0
  6  7  1  0
  6 19  2  0
  8  9  2  0
  8  5  1  0
  9 17  1  0
 11  9  1  0
 12  3  1  0
 13 15  2  0
 13 12  1  0
 14 19  1  0
 16 18  1  1
 16 20  1  0
 17  7  2  0
 20  2  1  6
 20  3  1  0
M  END
$$$$

     RDKit          3D

 20 21  0  0  0  0  0  0  0  0999 V2000
   -1.6250    0.5540  -17.4130 C   0  0  1  0  0  0  0  0  0  0  0  0
   -7.9420   -1.9430  -17.9280 C   0  0  0  0  0  0  0  0  0  0  0  0
   -9.7580   -3.2490  -17.4560 C   0  0  0  0  0  0  0  0  0  0  0  0
   -4.3580   -3.0340  -15.6550 O   0  0  0  0  0  0  0  0  0  0  0  0
   -1.2210   -0.9940  -19.5900 C   0  0  0  0  0  0  0  0  0  0  0  0
   -6.5590   -3.1760  -15.7000 N   0  0  0  0  0  0  0  0  0  0  0  0
   -1.3070   -0.6820  -16.6390 C   0  0  1  0  0  0  0  0  0  0  0  0
   -3.0300    0.5330  -19.7410 O   0  0  0  0  0  0  0  0  0  0  0  0
   -0.7540   -0.6270  -15.2500 O   0  0  0  0  0  0  0  0  0  0  0  0
   -7.8370   -3.4650  -16.0170 C   0  0  0  0  0  0  0  0  0  0  0  0
   -4.2770   -1.6980  -18.1630 N   0  0  0  0  0  0  0  0  0  0  0  0
   -5.4280   -2.8000  -16.2930 C   0  0  0  0  0  0  0  0  0  0  0  0
   -6.5590   -1.6050  -18.1340 C   0  0  0  0  0  0  0  0  0  0  0  0
   -3.4200   -0.9550  -17.8650 C   0  0  1  0  0  0  0  0  0  0  0  0
   -2.7000   -1.1650  -16.4680 C   0  0  0  0  0  0  0  0  0  0  0  0
   -5.5940   -2.1450  -17.4100 C   0  0  1  0  0  0  0  0  0  0  0  0
   -0.3600    1.5350  -17.5940 C   0  0  0  0  0  0  0  0  0  0  0  0
   -2.2680   -0.2200  -18.7720 C   0  0  2  0  0  0  0  0  0  0  0  0
   -8.4950   -2.5900  -16.8610 N   0  0  0  0  0  0  0  0  0  0  0  0
   -8.5070   -4.2630  -15.4530 O   0  0  0  0  0  0  0  0  0  0  0  0
  1 17  1  6
  1  7  1  0
  2 19  1  0
  3 19  1  0
  7 15  1  0
  7  9  1  1
  8 18  1  0
 10  6  1  0
 10 20  2  0
 12  6  1  0
 12  4  2  0
 13  2  2  0
 13 16  1  0
 14 11  1  6
 14 15  1  0
 16 11  1  1
 16 12  1  0
 18  5  1  6
 18 14  1  0
 18  1  1  0
 19 10  1  0
M  END
$$$$

     RDKit          3D

 22 23  0  0  0  0  0  0  0  0999 V2000
   -5.3910   -1.6650  -17.4870 C   0  0  0  0  0  0  0  0  0  0  0  0
   -2.9970   -1.1700  -17.9760 C   0  0  1  0  0  0  0  0  0  0  0  0
   -8.0970   -3.2840  -15.7860 C   0  0  0  0  0  0  0  0  0  0  0  0
   -3.7000   -2.3960  -15.9480 C   0  0  0  0  0  0  0  0  0  0  0  0
    0.0230   -1.9220  -18.9760 C   0  0  2  0  0  0  0  0  0  0  0  0
    1.1930   -1.2430  -19.7210 O   0  0  0  0  0  0  0  0  0  0  0  0
   -1.3480   -2.2570  -16.7450 C   0  0  0  0  0  0  0  0  0  0  0  0
   -4.0070   -1.7460  -17.1660 C   0  0  0  0  0  0  0  0  0  0  0  0
   -8.5260   -0.9170  -18.1560 O   0  0  0  0  0  0  0  0  0  0  0  0
   -7.6590   -3.4620  -14.6920 N   0  0  0  0  0  0  0  0  0  0  0  0
   -7.3580   -3.0390  -19.2180 O   0  0  0  0  0  0  0  0  0  0  0  0
   -9.7690   -3.4580  -17.4520 C   0  0  0  0  0  0  0  0  0  0  0  0
   -6.5040   -1.6280  -17.5270 C   0  0  0  0  0  0  0  0  0  0  0  0
   -0.5800   -2.5130  -20.1490 C   0  0  0  0  0  0  0  0  0  0  0  0
   -3.4000   -0.6540  -19.3690 C   0  0  0  0  0  0  0  0  0  0  0  0
   -2.1670   -0.2920  -19.8650 C   0  0  0  0  0  0  0  0  0  0  0  0
   -7.7600   -2.1560  -17.9820 C   0  0  1  0  0  0  0  0  0  0  0  0
   -1.6770   -0.8700  -17.5510 C   0  0  1  0  0  0  0  0  0  0  0  0
   -1.0650   -0.5730  -18.8470 C   0  0  1  0  0  0  0  0  0  0  0  0
   -4.5370   -2.5500  -14.9820 O   0  0  0  0  0  0  0  0  0  0  0  0
   -8.5280   -2.9760  -16.9990 C   0  0  0  0  0  0  0  0  0  0  0  0
   -2.3270   -2.9120  -15.7650 C   0  0  0  0  0  0  0  0  0  0  0  0
  1  8  2  0
  2 15  1  1
  2 18  1  0
  2  8  1  0
  3 10  3  0
  4 22  1  0
  4 20  1  0
  5 14  1  6
  6  5  1  0
  7 22  1  0
  8  4  1  0
 17  9  1  6
 11 17  1  0
 13  1  2  0
 16 15  1  0
 19 16  1  6
 17 13  1  0
 17 21  1  0
 18  7  1  6
 19  5  1  0
 19 18  1  0
 21 12  1  0
 21  3  1  0
M  END
$$$$

     RDKit          3D

 21 25  0  0  0  0  0  0  0  0999 V2000
   -2.0260   -1.4140  -18.3080 C   0  0  0  0  0  0  0  0  0  0  0  0
   -8.9620   -4.4500  -15.8390 O   0  0  0  0  0  0  0  0  0  0  0  0
   -6.4680   -1.5970  -16.1430 C   0  0  0  0  0  0  0  0  0  0  0  0
   -8.9660   -2.6560  -17.2970 C   0  0  2  0  0  0  0  0  0  0  0  0
   -0.7880   -1.0680  -18.1440 O   0  0  0  0  0  0  0  0  0  0  0  0
   -9.3960   -1.5370  -16.5650 C   0  0  0  0  0  0  0  0  0  0  0  0
   -8.0580   -3.2930  -17.9420 C   0  0  1  0  0  0  0  0  0  0  0  0
   -7.2030   -2.7030  -15.5240 C   0  0  0  0  0  0  0  0  0  0  0  0
   -1.9170   -2.7680  -16.4980 C   0  0  0  0  0  0  0  0  0  0  0  0
   -2.8440   -0.7560  -19.3690 C   0  0  0  0  0  0  0  0  0  0  0  0
   -6.3330   -1.5390  -17.6850 C   0  0  1  0  0  0  0  0  0  0  0  0
   -2.6510   -2.1380  -17.3570 C   0  0  0  0  0  0  0  0  0  0  0  0
   -8.8870   -1.1750  -17.6680 C   0  0  1  0  0  0  0  0  0  0  0  0
   -6.8420   -2.5420  -18.4680 C   0  0  2  0  0  0  0  0  0  0  0  0
   -3.9390   -2.2990  -17.2400 C   0  0  0  0  0  0  0  0  0  0  0  0
   -7.6340   -0.5780  -18.0560 C   0  0  0  0  0  0  0  0  0  0  0  0
   -4.2710   -0.9320  -19.0760 C   0  0  0  0  0  0  0  0  0  0  0  0
   -4.6700   -1.4920  -18.0670 C   0  0  0  0  0  0  0  0  0  0  0  0
   -8.0190   -3.5150  -16.3640 C   0  0  2  0  0  0  0  0  0  0  0  0
   -1.2900   -3.3650  -15.4130 N   0  0  0  0  0  0  0  0  0  0  0  0
   -6.9520   -2.6910  -19.7600 O   0  0  0  0  0  0  0  0  0  0  0  0
  1  5  1  0
  1 12  2  0
  3  8  2  0
  4  6  1  1
  4 19  1  0
  7  4  1  0
  7 19  1  0
  9 20  1  0
 10 17  2  0
 10  1  1  0
 11  3  1  0
 12 15  1  0
 12  9  1  0
 13  4  1  0
 13  6  1  1
  7 14  1  1
 14 11  1  0
 16 11  1  0
 16 13  1  0
 17 18  1  0
 11 18  1  1
 18 15  2  0
 19  2  1  6
 19  8  1  0
 14 21  1  6
M  END
$$$$

     RDKit          3D

 20 22  0  0  0  0  0  0  0  0999 V2000
   -9.4250   -1.1920  -17.5000 C   0  0  0  0  0  0  0  0  0  0  0  0
   -9.7130   -4.7930  -16.9570 N   0  0  0  0  0  0  0  0  0  0  0  0
   -7.2590   -1.9990  -17.3880 C   0  0  0  0  0  0  0  0  0  0  0  0
   -3.9440   -0.5740  -20.0630 O   0  0  0  0  0  0  0  0  0  0  0  0
   -9.9640   -2.3720  -17.2730 N   0  0  0  0  0  0  0  0  0  0  0  0
   -7.7300   -3.1920  -17.1380 N   0  0  0  0  0  0  0  0  0  0  0  0
   -9.2460   -3.4550  -17.1090 C   0  0  0  0  0  0  0  0  0  0  0  0
   -3.7650   -2.1800  -17.2860 C   0  0  0  0  0  0  0  0  0  0  0  0
   -3.7980   -3.5020  -16.9840 C   0  0  0  0  0  0  0  0  0  0  0  0
   -1.7010   -3.0400  -15.7950 N   0  0  0  0  0  0  0  0  0  0  0  0
  -10.7410   -0.0750  -17.6030 Cl  0  0  0  0  0  0  0  0  0  0  0  0
   -2.8150   -1.3920  -16.9930 C   0  0  0  0  0  0  0  0  0  0  0  0
   -6.0660   -1.8700  -17.2150 O   0  0  0  0  0  0  0  0  0  0  0  0
   -2.7250   -3.7630  -16.1870 C   0  0  0  0  0  0  0  0  0  0  0  0
   -1.7680   -1.7700  -16.2050 C   0  0  0  0  0  0  0  0  0  0  0  0
   -5.1590   -1.8170  -18.2460 C   0  0  2  0  0  0  0  0  0  0  0  0
   -5.8970   -1.6350  -19.5940 C   0  0  0  0  0  0  0  0  0  0  0  0
   -8.0910   -0.9590  -17.6240 C   0  0  0  0  0  0  0  0  0  0  0  0
   -0.5430   -0.6550  -15.8300 Cl  0  0  0  0  0  0  0  0  0  0  0  0
   -4.8340   -0.8140  -18.9410 N   0  0  0  0  0  0  0  0  0  0  0  0
  1  5  2  0
  3 13  1  0
  3  6  1  0
  4 20  1  0
  5  7  1  0
  6  7  2  0
  7  2  1  0
  8 12  1  0
  8  9  2  0
  9 14  1  0
 11  1  1  0
 12 15  2  0
 14 10  2  0
 15 19  1  0
 15 10  1  0
 16  8  1  0
 16 13  1  1
 17 20  1  0
 17 16  1  0
 18  1  1  0
 18  3  2  0
 20 16  1  0
M  END
$$$$

     RDKit          3D

 15 16  0  0  0  0  0  0  0  0999 V2000
   -7.9420   -3.6810  -15.9870 C   0  0  0  0  0  0  0  0  0  0  0  0
   -5.6990   -2.4720  -16.8160 C   0  0  0  0  0  0  0  0  0  0  0  0
   -5.5330   -1.8680  -18.0780 C   0  0  0  0  0  0  0  0  0  0  0  0
   -8.9580   -2.0730  -18.1520 O   0  0  0  0  0  0  0  0  0  0  0  0
   -7.6760   -2.2770  -18.0130 C   0  0  0  0  0  0  0  0  0  0  0  0
   -9.1150   -3.9660  -16.5260 O   0  0  0  0  0  0  0  0  0  0  0  0
   -4.4810   -2.4770  -16.0440 S   0  0  0  0  0  0  0  0  0  0  0  0
   -4.2660   -1.4580  -18.2850 N   0  0  0  0  0  0  0  0  0  0  0  0
   -6.7410   -1.6960  -18.7430 C   0  0  0  0  0  0  0  0  0  0  0  0
   -2.5380   -1.1190  -16.7990 C   0  0  0  0  0  0  0  0  0  0  0  0
   -3.5490   -1.6890  -17.1080 C   0  0  0  0  0  0  0  0  0  0  0  0
   -7.1460   -2.8850  -16.7890 C   0  0  1  0  0  0  0  0  0  0  0  0
   -7.5670   -4.1980  -15.0440 O   0  0  0  0  0  0  0  0  0  0  0  0
   -6.8540   -1.0930  -20.1690 C   0  0  0  0  0  0  0  0  0  0  0  0
   -1.2460   -1.0270  -17.7250 C   0  0  0  0  0  0  0  0  0  0  0  0
  1 13  1  0
  2 12  1  0
  2  7  1  0
  3  2  2  0
  4  5  1  0
  5 12  1  0
  6  1  2  0
  8  3  1  0
  8 11  2  0
  9  3  1  0
  9  5  2  0
 11 10  1  0
 11  7  1  0
 12  1  1  6
 14  9  1  0
 15 10  1  0
M  END
$$$$

     RDKit          3D

 19 21  0  0  0  0  0  0  0  0999 V2000
   -1.7740   -1.6800  -18.5290 C   0  0  0  0  0  0  0  0  0  0  0  0
   -0.3390   -2.0790  -18.9660 C   0  0  2  0  0  0  0  0  0  0  0  0
   -8.3480   -2.5710  -16.8480 C   0  0  0  0  0  0  0  0  0  0  0  0
   -8.2390   -3.1910  -15.6780 N   0  0  0  0  0  0  0  0  0  0  0  0
   -4.6910   -2.1240  -17.5690 C   0  0  0  0  0  0  0  0  0  0  0  0
   -3.7050   -0.7740  -19.6170 C   0  0  0  0  0  0  0  0  0  0  0  0
   -4.8080   -1.3470  -18.8290 C   0  0  0  0  0  0  0  0  0  0  0  0
    0.1730   -1.6200  -17.7700 F   0  0  0  0  0  0  0  0  0  0  0  0
   -5.9960   -3.0900  -15.7440 C   0  0  0  0  0  0  0  0  0  0  0  0
   -6.0640   -1.0730  -19.4450 C   0  0  0  0  0  0  0  0  0  0  0  0
    0.0980   -0.9470  -20.0530 C   0  0  0  0  0  0  0  0  0  0  0  0
   -5.8910   -2.4450  -16.9780 C   0  0  0  0  0  0  0  0  0  0  0  0
   -7.0700   -3.4980  -15.1170 N   0  0  0  0  0  0  0  0  0  0  0  0
   -3.5070   -2.5010  -17.1050 N   0  0  0  0  0  0  0  0  0  0  0  0
   -7.1890   -2.1930  -17.5500 C   0  0  2  0  0  0  0  0  0  0  0  0
   -2.3310   -2.3380  -17.5380 C   0  0  0  0  0  0  0  0  0  0  0  0
   -7.2540   -1.4920  -18.7570 C   0  0  0  0  0  0  0  0  0  0  0  0
   -2.5760   -0.9520  -19.3830 C   0  0  0  0  0  0  0  0  0  0  0  0
   -0.4100   -1.3960  -21.4090 O   0  0  0  0  0  0  0  0  0  0  0  0
  1 16  1  0
  2  1  1  0
  2  8  1  1
  3  4  2  0
  4 13  1  0
  5 14  1  0
  5 12  2  0
  6 18  1  0
  6  7  2  0
  7  5  1  0
  9 13  2  0
 10  7  1  0
 10 17  2  0
 11  2  1  0
 12  9  1  0
 15 17  1  1
 15 12  1  0
 15  3  1  0
 16 14  2  0
 18  1  2  0
 19 11  1  0
M  END
$$$$

     RDKit          3D

 20 20  0  0  0  0  0  0  0  0999 V2000
   -5.3350   -2.1110  -16.7250 O   0  0  0  0  0  0  0  0  0  0  0  0
   -0.5050   -1.3660  -16.5680 N   0  0  0  0  0  0  0  0  0  0  0  0
   -5.1420   -1.3680  -18.8470 C   0  0  0  0  0  0  0  0  0  0  0  0
   -6.7830   -2.0990  -16.8060 C   0  0  1  0  0  0  0  0  0  0  0  0
   -1.7000   -2.0840  -16.1230 C   0  0  0  0  0  0  0  0  0  0  0  0
   -4.5300   -1.6160  -17.6700 C   0  0  0  0  0  0  0  0  0  0  0  0
   -3.2600   -3.6930  -17.1270 C   0  0  0  0  0  0  0  0  0  0  0  0
   -6.9860   -2.2520  -18.2750 C   0  0  0  0  0  0  0  0  0  0  0  0
   -6.9970   -2.7360  -14.5240 O   0  0  0  0  0  0  0  0  0  0  0  0
   -3.1820   -1.4660  -17.6900 N   0  0  0  0  0  0  0  0  0  0  0  0
   -0.1470   -0.9940  -18.0090 C   0  0  0  0  0  0  0  0  0  0  0  0
   -8.5290   -2.2010  -18.1520 N   0  0  0  0  0  0  0  0  0  0  0  0
   -6.6010   -2.9370  -19.4490 N   0  0  0  0  0  0  0  0  0  0  0  0
   -8.0350   -4.1000  -15.8140 O   0  0  0  0  0  0  0  0  0  0  0  0
   -7.3380   -3.0560  -15.6270 C   0  0  0  0  0  0  0  0  0  0  0  0
   -9.5120   -2.2060  -17.1830 C   0  0  0  0  0  0  0  0  0  0  0  0
   -1.3320   -0.6740  -18.8900 C   0  0  0  0  0  0  0  0  0  0  0  0
    0.5260   -2.1640  -16.1620 N   0  0  0  0  0  0  0  0  0  0  0  0
   -2.5000   -0.2420  -18.0800 C   0  0  0  0  0  0  0  0  0  0  0  0
   -2.4330   -2.5610  -17.3290 C   0  0  1  0  0  0  0  0  0  0  0  0
  2 18  1  0
  2  5  1  0
  3  6  2  0
  4  8  1  0
  4  1  1  6
  4 15  1  0
  6  1  1  0
  8 12  1  0
 10  6  1  0
 10 20  1  0
 11  2  1  0
 12 16  1  0
 13  8  2  0
 14 15  2  0
 15  9  1  0
 17 19  1  0
 17 11  1  0
 19 10  1  0
 20  7  1  1
 20  5  1  0
M  END
$$$$

     RDKit          3D

 19 20  0  0  0  0  0  0  0  0999 V2000
   -4.4860   -1.9140  -18.0580 C   0  0  0  0  0  0  0  0  0  0  0  0
   -8.7210   -3.0470  -16.7170 C   0  0  1  0  0  0  0  0  0  0  0  0
   -9.4480   -4.1090  -16.2990 F   0  0  0  0  0  0  0  0  0  0  0  0
   -5.3230   -2.1940  -17.3040 C   0  0  2  0  0  0  0  0  0  0  0  0
   -4.3910   -2.6790  -16.0200 S   0  0  0  0  0  0  0  0  0  0  0  0
   -8.7020   -1.2190  -18.2110 N   0  0  0  0  0  0  0  0  0  0  0  0
   -2.7200    0.1010  -17.3540 C   0  0  0  0  0  0  0  0  0  0  0  0
   -0.1170   -1.5810  -18.0310 O   0  0  0  0  0  0  0  0  0  0  0  0
   -6.9650   -1.2820  -19.4940 O   0  0  0  0  0  0  0  0  0  0  0  0
   -1.0820   -1.9590  -17.5250 C   0  0  0  0  0  0  0  0  0  0  0  0
   -1.7350    1.2860  -16.8720 C   0  0  0  0  0  0  0  0  0  0  0  0
   -7.3630   -1.5800  -18.3270 C   0  0  0  0  0  0  0  0  0  0  0  0
   -6.9470   -3.7530  -15.2960 O   0  0  0  0  0  0  0  0  0  0  0  0
   -6.6990   -2.2430  -17.3880 C   0  0  2  0  0  0  0  0  0  0  0  0
   -9.5350   -1.9670  -17.3990 C   0  0  0  0  0  0  0  0  0  0  0  0
   -7.5390   -2.9130  -16.3290 C   0  0  1  0  0  0  0  0  0  0  0  0
   -1.1830   -3.0810  -16.8500 O   0  0  0  0  0  0  0  0  0  0  0  0
   -2.3250   -1.4470  -17.1800 C   0  0  2  0  0  0  0  0  0  0  0  0
   -3.2370   -1.9960  -17.0760 C   0  0  2  0  0  0  0  0  0  0  0  0
 19  1  1  6
  2 16  1  0
  2  3  1  1
  4  1  1  6
  4  5  1  0
  6 15  1  0
  7 11  1  0
  8 10  2  0
  9 12  2  0
 10 18  1  0
 10 17  1  0
 12  6  1  0
 14 12  1  1
 14  4  1  0
 14 16  1  0
 15  2  1  0
 16 13  1  6
 18  7  1  6
 19 18  1  0
 19  5  1  0
M  END
$$$$

     RDKit          3D

 19 20  0  0  0  0  0  0  0  0999 V2000
   -5.2530   -2.9630  -15.2310 C   0  0  0  0  0  0  0  0  0  0  0  0
   -1.5400   -2.8860  -18.4250 O   0  0  0  0  0  0  0  0  0  0  0  0
   -8.0160   -1.9290  -17.5440 C   0  0  2  0  0  0  0  0  0  0  0  0
   -4.6430   -1.3610  -18.8230 C   0  0  2  0  0  0  0  0  0  0  0  0
   -2.6720   -2.2740  -17.7840 C   0  0  2  0  0  0  0  0  0  0  0  0
   -7.8950   -2.9880  -15.3670 O   0  0  0  0  0  0  0  0  0  0  0  0
   -5.0280   -0.6480  -20.0700 O   0  0  0  0  0  0  0  0  0  0  0  0
   -6.0730   -2.4750  -16.5130 N   0  0  0  0  0  0  0  0  0  0  0  0
   -2.3020   -1.6780  -16.3880 C   0  0  0  0  0  0  0  0  0  0  0  0
   -3.4870   -3.3050  -17.5170 O   0  0  0  0  0  0  0  0  0  0  0  0
   -7.3780   -2.4880  -16.4740 C   0  0  0  0  0  0  0  0  0  0  0  0
   -9.3150   -1.9360  -17.8350 F   0  0  0  0  0  0  0  0  0  0  0  0
   -2.5360   -2.9250  -15.5660 C   0  0  0  0  0  0  0  0  0  0  0  0
   -7.2180   -1.2300  -19.7410 O   0  0  0  0  0  0  0  0  0  0  0  0
   -5.7640   -1.8960  -18.0210 C   0  0  1  0  0  0  0  0  0  0  0  0
   -7.0900   -1.4400  -18.3430 C   0  0  2  0  0  0  0  0  0  0  0  0
   -2.7370   -1.0980  -19.9320 O   0  0  0  0  0  0  0  0  0  0  0  0
   -3.0870   -3.9820  -16.4520 C   0  0  0  0  0  0  0  0  0  0  0  0
   -3.1060   -1.1490  -18.6010 C   0  0  1  0  0  0  0  0  0  0  0  0
  3 12  1  6
  3 11  1  0
  4  7  1  1
  4 19  1  0
  5  2  1  6
  5 10  1  0
  5  9  1  0
  8 11  1  0
  8  1  1  0
  9 13  1  0
 10 18  1  0
 11  6  2  0
 15  4  1  0
 15  8  1  1
 16 14  1  6
 16 15  1  0
 16  3  1  0
 18 13  1  0
 19 17  1  6
 19  5  1  0
M  END
$$$$

     RDKit          3D

 20 24  0  0  0  0  0  0  0  0999 V2000
   -0.8770   -1.5610  -16.1730 C   0  0  0  0  0  0  0  0  0  0  0  0
   -3.8450   -2.3730  -16.9820 C   0  0  0  0  0  0  0  0  0  0  0  0
   -9.3950   -2.7000  -16.5310 N   0  0  0  0  0  0  0  0  0  0  0  0
   -0.7810   -0.6280  -18.6070 C   0  0  0  0  0  0  0  0  0  0  0  0
   -1.7970   -0.8590  -17.4530 C   0  0  2  0  0  0  0  0  0  0  0  0
   -4.6670   -3.1480  -16.0550 C   0  0  0  0  0  0  0  0  0  0  0  0
   -7.2430   -4.3220  -15.0770 O   0  0  0  0  0  0  0  0  0  0  0  0
   -1.8300   -3.2140  -18.2420 C   0  0  0  0  0  0  0  0  0  0  0  0
   -4.5250   -1.4030  -18.8090 C   0  0  0  0  0  0  0  0  0  0  0  0
   -1.3870   -0.2680  -16.1490 C   0  0  0  0  0  0  0  0  0  0  0  0
   -9.6350   -1.7000  -17.3550 C   0  0  0  0  0  0  0  0  0  0  0  0
   -4.9530   -1.8640  -17.7090 C   0  0  0  0  0  0  0  0  0  0  0  0
   -6.1570   -2.0130  -17.2440 C   0  0  0  0  0  0  0  0  0  0  0  0
   -8.5570   -1.2220  -17.8770 C   0  0  0  0  0  0  0  0  0  0  0  0
   -2.6270   -1.9710  -17.9300 C   0  0  1  0  0  0  0  0  0  0  0  0
   -7.3780   -1.9360  -17.3400 C   0  0  0  0  0  0  0  0  0  0  0  0
   -5.9240   -2.9130  -16.2500 C   0  0  0  0  0  0  0  0  0  0  0  0
   -7.1110   -3.4010  -15.8180 C   0  0  0  0  0  0  0  0  0  0  0  0
   -7.9930   -2.7310  -16.5210 N   0  0  0  0  0  0  0  0  0  0  0  0
   -3.1740   -1.4210  -19.0540 O   0  0  0  0  0  0  0  0  0  0  0  0
  1 10  1  0
  2  6  1  0
  3 19  1  0
  5  4  1  6
  5  1  1  0
  5 10  1  0
  9 12  1  0
 11  3  2  0
 12 13  1  0
 12  2  2  0
 13 17  2  0
 14 11  1  0
 14 16  2  0
 15  8  1  6
 15  5  1  0
 15  2  1  0
 16 13  1  0
 16 19  1  0
 17  6  1  0
 17 18  1  0
 18  7  2  0
 19 18  1  0
 20  9  1  0
 20 15  1  0
M  END
$$$$

     RDKit          3D

 17 17  0  0  0  0  0  0  0  0999 V2000
   -1.5780   -3.0310  -15.7210 C   0  0  0  0  0  0  0  0  0  0  0  0
   -4.0140   -3.1490  -15.5020 C   0  0  0  0  0  0  0  0  0  0  0  0
   -3.0430   -1.9950  -17.1750 C   0  0  0  0  0  0  0  0  0  0  0  0
   -3.0960   -0.7370  -18.4490 Cl  0  0  0  0  0  0  0  0  0  0  0  0
   -8.1710   -4.3540  -15.5810 O   0  0  0  0  0  0  0  0  0  0  0  0
   -5.4620   -2.1700  -17.3620 C   0  0  0  0  0  0  0  0  0  0  0  0
   -6.7470   -3.2850  -19.7660 O   0  0  0  0  0  0  0  0  0  0  0  0
   -2.7020   -3.3920  -15.0150 C   0  0  0  0  0  0  0  0  0  0  0  0
   -7.8900   -2.5210  -17.7920 C   0  0  2  0  0  0  0  0  0  0  0  0
   -8.7050   -1.3820  -17.1700 C   0  0  0  0  0  0  0  0  0  0  0  0
   -4.1620   -2.4010  -16.6530 C   0  0  0  0  0  0  0  0  0  0  0  0
   -6.6710   -2.9270  -16.7860 C   0  0  2  0  0  0  0  0  0  0  0  0
   -7.1670   -1.1510  -19.5670 O   0  0  0  0  0  0  0  0  0  0  0  0
   -7.3590   -3.4280  -15.5190 C   0  0  0  0  0  0  0  0  0  0  0  0
   -1.7250   -2.3710  -16.8950 C   0  0  0  0  0  0  0  0  0  0  0  0
   -7.2130   -2.2860  -19.1260 C   0  0  0  0  0  0  0  0  0  0  0  0
   -7.0040   -2.9320  -14.3940 O   0  0  0  0  0  0  0  0  0  0  0  0
  1  8  2  0
  2  8  1  0
  3 15  2  0
  3 11  1  0
  4  3  1  0
  5 14  2  0
  6 11  1  0
  7 16  2  0
  9 10  1  1
  9 12  1  0
 11  2  2  0
 12  6  1  1
 12 14  1  0
 13 16  1  0
 14 17  1  0
 15  1  1  0
 16  9  1  0
M  END
$$$$

     RDKit          3D

 21 24  0  0  0  0  0  0  0  0999 V2000
   -7.5100   -1.7080  -18.9040 C   0  0  0  0  0  0  0  0  0  0  0  0
   -2.5070   -2.3150  -17.6190 C   0  0  0  0  0  0  0  0  0  0  0  0
   -3.9820   -2.7220  -15.6880 C   0  0  2  0  0  0  0  0  0  0  0  0
   -1.4450   -2.7690  -16.7120 C   0  0  0  0  0  0  0  0  0  0  0  0
   -5.1040   -2.0560  -17.6430 C   0  0  0  0  0  0  0  0  0  0  0  0
   -8.7280   -3.7740  -16.2380 O   0  0  0  0  0  0  0  0  0  0  0  0
   -3.8500   -2.0750  -17.0350 N   0  0  0  0  0  0  0  0  0  0  0  0
   -4.0360   -0.7870  -19.6610 C   0  0  0  0  0  0  0  0  0  0  0  0
   -6.0120   -0.4150  -20.7980 C   0  0  0  0  0  0  0  0  0  0  0  0
   -5.4470   -3.0260  -15.6160 C   0  0  0  0  0  0  0  0  0  0  0  0
   -6.2300   -2.5010  -17.0890 C   0  0  0  0  0  0  0  0  0  0  0  0
   -1.6280   -2.3350  -15.3060 N   0  0  0  0  0  0  0  0  0  0  0  0
   -6.3410   -1.1600  -19.5100 C   0  0  0  0  0  0  0  0  0  0  0  0
   -4.6090   -0.3190  -20.8100 C   0  0  0  0  0  0  0  0  0  0  0  0
   -9.8830   -1.8370  -16.7590 C   0  0  0  0  0  0  0  0  0  0  0  0
   -7.5400   -2.2480  -17.6300 C   0  0  0  0  0  0  0  0  0  0  0  0
   -5.1010   -1.3770  -18.9010 N   0  0  0  0  0  0  0  0  0  0  0  0
   -3.0320   -2.8800  -13.5890 O   0  0  0  0  0  0  0  0  0  0  0  0
   -6.2060   -3.5230  -14.9680 O   0  0  0  0  0  0  0  0  0  0  0  0
   -8.6610   -2.6530  -16.8600 C   0  0  0  0  0  0  0  0  0  0  0  0
   -2.8630   -2.7090  -14.8030 C   0  0  0  0  0  0  0  0  0  0  0  0
  1 16  2  0
  2  7  1  0
  2  4  1  0
  3 10  1  1
  3 21  1  0
  4 12  1  0
  5 11  2  0
  5  7  1  0
  7  3  1  0
  8 17  1  0
  9 13  2  0
 10 19  2  0
 11 10  1  0
 12 21  1  0
 13  1  1  0
 13 17  1  0
 14  9  1  0
 14  8  2  0
 16 11  1  0
 16 20  1  0
 17  5  1  0
 20 15  1  0
 20  6  2  0
 21 18  2  0
M  END
$$$$

     RDKit          3D

 17 18  0  0  0  0  0  0  0  0999 V2000
   -7.1650   -1.0030  -19.3920 F   0  0  0  0  0  0  0  0  0  0  0  0
   -5.1430   -3.3590  -15.9630 O   0  0  0  0  0  0  0  0  0  0  0  0
   -5.1390   -0.9790  -17.6880 N   0  0  0  0  0  0  0  0  0  0  0  0
   -7.5020   -3.1290  -15.9390 C   0  0  0  0  0  0  0  0  0  0  0  0
   -7.3360   -1.5100  -18.2030 C   0  0  0  0  0  0  0  0  0  0  0  0
   -1.4340   -0.4320  -18.2780 C   0  0  0  0  0  0  0  0  0  0  0  0
   -3.8830   -1.0790  -17.8190 C   0  0  0  0  0  0  0  0  0  0  0  0
   -3.5800   -1.0420  -19.1390 C   0  0  0  0  0  0  0  0  0  0  0  0
   -0.3610   -0.3850  -16.1490 C   0  0  0  0  0  0  0  0  0  0  0  0
   -6.2400   -1.7960  -17.4030 C   0  0  0  0  0  0  0  0  0  0  0  0
   -8.6170   -1.8500  -17.6630 C   0  0  0  0  0  0  0  0  0  0  0  0
   -1.5180   -0.7240  -16.7670 C   0  0  0  0  0  0  0  0  0  0  0  0
   -8.6120   -2.5860  -16.5690 C   0  0  0  0  0  0  0  0  0  0  0  0
   -2.2920   -0.6750  -19.2990 C   0  0  0  0  0  0  0  0  0  0  0  0
   -7.5120   -4.0070  -14.9190 O   0  0  0  0  0  0  0  0  0  0  0  0
   -2.9800   -0.9650  -16.8530 C   0  0  0  0  0  0  0  0  0  0  0  0
   -6.2580   -2.7210  -16.4400 C   0  0  0  0  0  0  0  0  0  0  0  0
  1  5  1  0
  3 10  1  0
  4 15  1  0
  5 11  2  0
  5 10  1  0
  6 12  2  0
  7  3  1  0
  7 16  2  0
  8  7  1  0
 10 17  2  0
 11 13  1  0
 12  9  1  0
 13  4  2  0
 14  8  2  0
 14  6  1  0
 16 12  1  0
 17  2  1  0
 17  4  1  0
M  END
$$$$

     RDKit          3D

 18 19  0  0  0  0  0  0  0  0999 V2000
   -5.4460   -1.6320  -18.9780 C   0  0  0  0  0  0  0  0  0  0  0  0
   -8.6180   -2.6190  -16.1320 N   0  0  0  0  0  0  0  0  0  0  0  0
   -6.6640   -2.1280  -17.2090 C   0  0  2  0  0  0  0  0  0  0  0  0
   -3.6380   -4.5220  -16.9710 O   0  0  0  0  0  0  0  0  0  0  0  0
   -6.6780   -1.5500  -19.3830 N   0  0  0  0  0  0  0  0  0  0  0  0
   -7.3200   -2.7210  -16.1470 C   0  0  0  0  0  0  0  0  0  0  0  0
   -8.7440   -1.5530  -18.1450 N   0  0  0  0  0  0  0  0  0  0  0  0
   -4.0950   -1.5560  -16.8510 C   0  0  1  0  0  0  0  0  0  0  0  0
   -7.4540   -1.7100  -18.2410 C   0  0  0  0  0  0  0  0  0  0  0  0
   -2.5310   -3.7400  -15.0250 O   0  0  0  0  0  0  0  0  0  0  0  0
   -9.2950   -2.0630  -17.1130 C   0  0  0  0  0  0  0  0  0  0  0  0
   -6.7580   -3.4040  -15.2910 O   0  0  0  0  0  0  0  0  0  0  0  0
   -0.9680   -0.6740  -16.9710 C   0  0  0  0  0  0  0  0  0  0  0  0
   -2.7220   -1.9440  -17.4290 C   0  0  0  0  0  0  0  0  0  0  0  0
   -5.3210   -1.8800  -17.6680 C   0  0  2  0  0  0  0  0  0  0  0  0
   -3.4140   -3.6870  -16.0020 P   0  0  0  0  0  0  0  0  0  0  0  0
   -1.8110   -1.7720  -16.3530 O   0  0  0  0  0  0  0  0  0  0  0  0
   -4.3520   -2.6130  -15.8320 O   0  0  0  0  0  0  0  0  0  0  0  0
 15  1  1  6
  3  9  1  0
  3  6  1  6
  4 16  2  0
  5  1  1  0
  5  9  2  0
  6  2  1  0
  6 12  2  0
  7 11  2  0
  8 14  1  6
  8 18  1  0
  9  7  1  0
 11  2  1  0
 13 17  1  0
 14 17  1  0
 15  3  1  0
 15  8  1  0
 16 18  1  0
 16 10  2  0
M  END
$$$$

     RDKit          3D

 15 16  0  0  0  0  0  0  0  0999 V2000
   -0.3760   -0.2740  -16.9970 C   0  0  0  0  0  0  0  0  0  0  0  0
   -2.7410   -0.1640  -17.0500 C   0  0  0  0  0  0  0  0  0  0  0  0
   -2.9080   -1.5550  -16.8810 C   0  0  0  0  0  0  0  0  0  0  0  0
   -1.7360   -2.1930  -16.6170 C   0  0  0  0  0  0  0  0  0  0  0  0
   -5.9200   -1.8140  -18.5570 N   0  0  0  0  0  0  0  0  0  0  0  0
   -7.0730   -3.3350  -15.4210 C   0  0  0  0  0  0  0  0  0  0  0  0
   -4.8580   -2.6380  -16.1880 C   0  0  0  0  0  0  0  0  0  0  0  0
   -4.1140   -1.9990  -17.1440 C   0  0  0  0  0  0  0  0  0  0  0  0
   -6.1820   -2.7270  -16.4360 C   0  0  0  0  0  0  0  0  0  0  0  0
   -7.0420   -4.5810  -15.1260 O   0  0  0  0  0  0  0  0  0  0  0  0
   -4.6960   -1.6950  -18.3810 N   0  0  0  0  0  0  0  0  0  0  0  0
   -0.4730   -1.6760  -16.8410 C   0  0  0  0  0  0  0  0  0  0  0  0
   -1.5340    0.4800  -17.1180 C   0  0  0  0  0  0  0  0  0  0  0  0
   -7.7650   -2.5930  -14.7740 O   0  0  0  0  0  0  0  0  0  0  0  0
   -6.7040   -2.1990  -17.5940 N   0  0  0  0  0  0  0  0  0  0  0  0
  1 12  2  0
  2  3  1  0
  3  4  2  0
  5 11  2  0
  5 15  1  0
  6 10  2  0
  6 14  1  0
  8  3  1  0
  8  7  2  0
  9  7  1  0
  9  6  1  0
 11  8  1  0
 12  4  1  0
 13  2  2  0
 13  1  1  0
 15  9  2  0
M  END
$$$$

     RDKit          3D

 19 21  0  0  0  0  0  0  0  0999 V2000
    0.0530   -2.6600  -15.2480 O   0  0  0  0  0  0  0  0  0  0  0  0
   -8.6550   -3.0980  -17.1420 S   0  0  1  0  0  0  0  0  0  0  0  0
   -0.5380   -0.7890  -16.7930 C   0  0  0  0  0  0  0  0  0  0  0  0
   -7.3120   -2.2500  -17.9740 C   0  0  0  0  0  0  0  0  0  0  0  0
   -3.8360   -2.0520  -17.3850 N   0  0  0  0  0  0  0  0  0  0  0  0
   -4.9940   -1.7670  -18.0470 C   0  0  0  0  0  0  0  0  0  0  0  0
   -9.6400   -2.0270  -16.5560 N   0  0  0  0  0  0  0  0  0  0  0  0
   -2.6280   -1.5810  -17.0500 C   0  0  0  0  0  0  0  0  0  0  0  0
   -5.0730   -1.1600  -19.3130 C   0  0  0  0  0  0  0  0  0  0  0  0
   -9.3830   -3.9160  -18.1500 O   0  0  0  0  0  0  0  0  0  0  0  0
   -2.0390   -2.3800  -16.1930 C   0  0  0  0  0  0  0  0  0  0  0  0
   -2.8300   -3.4180  -15.8510 N   0  0  0  0  0  0  0  0  0  0  0  0
   -6.1870   -2.0630  -17.3240 C   0  0  0  0  0  0  0  0  0  0  0  0
   -7.4240   -1.7870  -19.2680 C   0  0  0  0  0  0  0  0  0  0  0  0
   -3.8690   -3.1650  -16.6850 C   0  0  0  0  0  0  0  0  0  0  0  0
   -0.7380   -2.0410  -15.9100 C   0  0  0  0  0  0  0  0  0  0  0  0
   -6.3080   -1.2400  -19.9430 C   0  0  0  0  0  0  0  0  0  0  0  0
   -1.8630   -0.3760  -17.4710 C   0  0  0  0  0  0  0  0  0  0  0  0
   -8.5380   -4.1420  -15.9520 O   0  0  0  0  0  0  0  0  0  0  0  0
  2  7  1  1
  2 19  2  0
  3 16  1  0
  4 13  2  0
  4  2  1  0
  5  8  1  0
  5 15  1  0
  6  5  1  0
  6 13  1  0
  8 11  2  0
  9  6  2  0
 10  2  2  0
 11 16  1  0
 11 12  1  0
 14  4  1  0
 15 12  2  0
 16  1  2  0
 17  9  1  0
 17 14  2  0
 18  8  1  0
 18  3  2  0
M  END
$$$$

     RDKit          3D

 30 32  0  0  0  0  0  0  0  0999 V2000
    0.9200    1.5790  -20.4610 C   0  0  0  0  0  0  0  0  0  0  0  0
   -1.1340   -0.8610  -18.1960 C   0  0  2  0  0  0  0  0  0  0  0  0
   -7.7970   -1.8930  -18.1010 C   0  0  2  0  0  0  0  0  0  0  0  0
   -3.9590   -0.9040  -19.7870 O   0  0  0  0  0  0  0  0  0  0  0  0
   -5.6190   -2.0360  -18.6340 C   0  0  1  0  0  0  0  0  0  0  0  0
   -0.8660   -3.2410  -18.6410 C   0  0  0  0  0  0  0  0  0  0  0  0
   -3.5430   -1.7380  -17.5010 N   0  0  0  0  0  0  0  0  0  0  0  0
   -9.0020   -1.0920  -17.6580 C   0  0  0  0  0  0  0  0  0  0  0  0
   -4.3140   -1.4600  -18.6870 C   0  0  0  0  0  0  0  0  0  0  0  0
   -4.5200   -2.1240  -16.5290 C   0  0  0  0  0  0  0  0  0  0  0  0
   -8.9320   -4.1560  -16.3540 N   0  0  0  0  0  0  0  0  0  0  0  0
   -1.9380   -3.9690  -16.4330 C   0  0  0  0  0  0  0  0  0  0  0  0
   -7.9390   -3.3900  -15.8690 C   0  0  0  0  0  0  0  0  0  0  0  0
    0.0240    1.3650  -17.3530 O   0  0  0  0  0  0  0  0  0  0  0  0
   -7.5930   -3.1630  -14.7020 O   0  0  0  0  0  0  0  0  0  0  0  0
   -1.1650   -1.8390  -19.3410 C   0  0  2  0  0  0  0  0  0  0  0  0
   -4.4260   -2.2600  -15.2550 O   0  0  0  0  0  0  0  0  0  0  0  0
   -7.1670   -2.5700  -16.9170 C   0  0  1  0  0  0  0  0  0  0  0  0
   -2.0960   -1.5980  -17.2340 C   0  0  1  0  0  0  0  0  0  0  0  0
   -1.2420   -2.7900  -17.2530 C   0  0  2  0  0  0  0  0  0  0  0  0
   -5.8690   -2.5090  -17.1300 N   0  0  0  0  0  0  0  0  0  0  0  0
   -1.5930    0.3710  -18.5550 O   0  0  0  0  0  0  0  0  0  0  0  0
   -0.1650   -1.6420  -20.6290 C   0  0  0  0  0  0  0  0  0  0  0  0
   -6.7160   -1.1570  -18.8670 C   0  0  1  0  0  0  0  0  0  0  0  0
   -2.0800   -3.4790  -15.0270 O   0  0  0  0  0  0  0  0  0  0  0  0
   -0.3510    1.2620  -18.3660 C   0  0  0  0  0  0  0  0  0  0  0  0
   -9.2150   -0.1570  -18.5050 O   0  0  0  0  0  0  0  0  0  0  0  0
   -0.3030    2.0550  -19.3970 O   0  0  0  0  0  0  0  0  0  0  0  0
   -6.9670   -0.8510  -20.2130 O   0  0  0  0  0  0  0  0  0  0  0  0
   -9.8530   -1.4330  -16.6650 N   0  0  0  0  0  0  0  0  0  0  0  0
  1 28  1  0
  2 22  1  6
  2 19  1  0
  3  8  1  1
  3 18  1  0
  4  9  2  0
  5  9  1  1
  5 21  1  0
  6 20  1  0
  7 10  1  0
  8 30  1  0
  9  7  1  0
 10 17  2  0
 11 13  1  0
 12 25  1  0
 13 15  2  0
 16 23  1  6
 16  6  1  0
 16  2  1  0
 18 13  1  6
 19  7  1  6
 20 19  1  0
 20 12  1  6
 21 18  1  0
 21 10  1  0
 22 26  1  0
 24 29  1  6
 24  5  1  0
 24  3  1  0
 26 14  2  0
 27  8  2  0
 28 26  1  0
M  END
$$$$

     RDKit          3D

 23 26  0  0  0  0  0  0  0  0999 V2000
   -8.3070   -2.7870  -16.4490 C   0  0  2  0  0  0  0  0  0  0  0  0
    1.5260   -0.7280  -20.2210 C   0  0  0  0  0  0  0  0  0  0  0  0
   -5.9400   -2.4170  -16.8960 C   0  0  0  0  0  0  0  0  0  0  0  0
   -2.8200   -0.6090  -17.7140 C   0  0  0  0  0  0  0  0  0  0  0  0
    1.0780   -0.7890  -21.7470 C   0  0  0  0  0  0  0  0  0  0  0  0
   -0.4590   -0.8490  -18.7790 C   0  0  0  0  0  0  0  0  0  0  0  0
   -6.8200   -1.4160  -20.1840 O   0  0  0  0  0  0  0  0  0  0  0  0
   -6.0880   -1.3540  -19.0530 C   0  0  0  0  0  0  0  0  0  0  0  0
   -4.7070   -1.0750  -18.9980 C   0  0  0  0  0  0  0  0  0  0  0  0
   -3.9480   -1.4170  -17.8790 C   0  0  0  0  0  0  0  0  0  0  0  0
   -1.9940   -0.6870  -18.8440 C   0  0  2  0  0  0  0  0  0  0  0  0
   -0.0210   -0.8310  -20.0440 C   0  0  1  0  0  0  0  0  0  0  0  0
   -0.3410   -0.7650  -21.2500 O   0  0  0  0  0  0  0  0  0  0  0  0
   -6.9770   -4.1690  -14.9980 O   0  0  0  0  0  0  0  0  0  0  0  0
   -4.1000   -0.6260  -20.1570 O   0  0  0  0  0  0  0  0  0  0  0  0
   -2.6760   -0.3200  -20.0020 C   0  0  0  0  0  0  0  0  0  0  0  0
   -3.7160   -2.6300  -14.9710 O   0  0  0  0  0  0  0  0  0  0  0  0
   -8.2440   -1.7860  -17.6120 C   0  0  0  0  0  0  0  0  0  0  0  0
   -6.9310   -3.2320  -16.0630 C   0  0  1  0  0  0  0  0  0  0  0  0
   -3.9330   -3.5030  -16.1090 C   0  0  0  0  0  0  0  0  0  0  0  0
   -4.6150   -2.3510  -17.0210 C   0  0  0  0  0  0  0  0  0  0  0  0
   -9.1430   -3.9890  -16.6370 N   0  0  0  0  0  0  0  0  0  0  0  0
   -6.7620   -1.7970  -17.9660 C   0  0  0  0  0  0  0  0  0  0  0  0
  1 22  1  6
  1 19  1  0
  2 12  1  0
  3 19  1  0
  5 13  1  0
  5  2  1  0
  7  8  1  0
  8  9  1  0
  8 23  2  0
  9 10  2  0
 10  4  1  0
 10 21  1  0
 11  6  1  1
 11  4  1  0
 12  6  1  1
 13 12  1  0
 15 16  1  0
 15  9  1  0
 16 11  1  0
 18  1  1  0
 19 14  1  1
 20 17  1  0
 21  3  2  0
 21 20  1  0
 23 18  1  0
 23  3  1  0
M  END
$$$$

     RDKit          3D

 21 23  0  0  0  0  0  0  0  0999 V2000
   -2.1100   -0.7250  -20.3190 O   0  0  0  0  0  0  0  0  0  0  0  0
   -7.1020   -1.3570  -18.9150 C   0  0  1  0  0  0  0  0  0  0  0  0
   -5.0730   -1.2190  -20.4680 S   0  0  0  0  0  0  0  0  0  0  0  0
   -7.8500   -3.2260  -15.9100 C   0  0  0  0  0  0  0  0  0  0  0  0
   -6.0060   -1.1980  -18.1000 C   0  0  1  0  0  0  0  0  0  0  0  0
   -2.0070   -3.2200  -15.8870 O   0  0  0  0  0  0  0  0  0  0  0  0
   -6.1720   -2.3080  -17.0650 C   0  0  0  0  0  0  0  0  0  0  0  0
   -2.3280   -2.3800  -16.8050 C   0  0  0  0  0  0  0  0  0  0  0  0
   -4.8940   -2.5840  -16.2850 C   0  0  0  0  0  0  0  0  0  0  0  0
   -7.9150   -3.5590  -18.1920 O   0  0  0  0  0  0  0  0  0  0  0  0
   -3.6310   -1.3660  -18.3040 C   0  0  0  0  0  0  0  0  0  0  0  0
   -2.1890   -1.4140  -19.0240 C   0  0  0  0  0  0  0  0  0  0  0  0
   -8.9290   -1.2780  -17.1680 C   0  0  0  0  0  0  0  0  0  0  0  0
   -7.5480   -2.9280  -17.0450 C   0  0  1  0  0  0  0  0  0  0  0  0
   -1.1540   -2.1390  -18.0750 C   0  0  0  0  0  0  0  0  0  0  0  0
   -8.3320   -1.0320  -18.1150 C   0  0  0  0  0  0  0  0  0  0  0  0
   -7.4990   -3.8590  -14.7950 O   0  0  0  0  0  0  0  0  0  0  0  0
   -4.7770   -1.4050  -18.7730 C   0  0  2  0  0  0  0  0  0  0  0  0
   -6.5970   -0.7940  -20.1970 C   0  0  0  0  0  0  0  0  0  0  0  0
   -3.5650   -1.9690  -16.8790 C   0  0  2  0  0  0  0  0  0  0  0  0
  -10.2950   -0.7840  -16.8390 C   0  0  0  0  0  0  0  0  0  0  0  0
  1 12  1  0
  2 16  1  0
  2  5  1  0
  3 19  1  0
  4 17  1  0
  5  7  1  1
  7 14  1  0
  7  9  2  0
  8  6  1  0
 11 20  1  0
 12 11  2  0
 12 15  1  0
 13 21  1  0
 14 10  1  6
 14  4  1  0
 15  8  2  0
 16 13  2  3
 18  3  1  6
 18 11  1  0
 18  5  1  0
  2 19  1  6
 20  8  1  0
 20  9  1  6
M  END
$$$$

     RDKit          3D

 20 22  0  0  0  0  0  0  0  0999 V2000
   -7.6390   -3.4440  -15.8780 C   0  0  0  0  0  0  0  0  0  0  0  0
    0.2330   -0.9480  -17.8760 C   0  0  0  0  0  0  0  0  0  0  0  0
   -3.9210   -2.1400  -16.6770 N   0  0  0  0  0  0  0  0  0  0  0  0
   -1.7310   -1.4980  -17.8750 C   0  0  1  0  0  0  0  0  0  0  0  0
   -9.6150   -3.1270  -17.2190 C   0  0  0  0  0  0  0  0  0  0  0  0
    0.5010   -1.0300  -21.1490 S   0  0  0  0  0  0  0  0  0  0  0  0
   -8.2130   -2.9190  -16.9180 C   0  0  0  0  0  0  0  0  0  0  0  0
   -5.6180   -2.5180  -16.4160 C   0  0  0  0  0  0  0  0  0  0  0  0
   -3.0640   -0.7660  -18.2910 C   0  0  0  0  0  0  0  0  0  0  0  0
   -0.6080   -2.0260  -20.1890 C   0  0  0  0  0  0  0  0  0  0  0  0
   -0.8440   -3.3640  -17.4160 O   0  0  0  0  0  0  0  0  0  0  0  0
   -4.2490   -1.2520  -17.5820 C   0  0  1  0  0  0  0  0  0  0  0  0
   -5.5410   -1.6640  -17.6150 C   0  0  2  0  0  0  0  0  0  0  0  0
   -8.1000   -4.3140  -15.1030 O   0  0  0  0  0  0  0  0  0  0  0  0
   -1.6530   -2.4080  -16.9000 C   0  0  2  0  0  0  0  0  0  0  0  0
   -7.4410   -2.1860  -17.6860 C   0  0  0  0  0  0  0  0  0  0  0  0
   -0.7140   -1.6170  -18.5680 C   0  0  0  0  0  0  0  0  0  0  0  0
   -2.9420   -3.0870  -16.4270 C   0  0  0  0  0  0  0  0  0  0  0  0
   -6.6450   -1.5640  -18.1690 N   0  0  0  0  0  0  0  0  0  0  0  0
   -6.2410   -3.2290  -15.7540 N   0  0  0  0  0  0  0  0  0  0  0  0
  1 20  1  0
  1 14  2  0
  3 18  1  0
  3  8  1  0
  4 17  1  6
  4 15  1  0
  6 10  1  0
  7  5  1  0
  7  1  1  0
  8 20  2  0
  9  4  1  0
 10 17  1  0
 12  9  1  6
 12  3  1  0
 13 19  1  1
 13 12  1  0
 13  8  1  0
 15 11  1  6
 15 18  1  0
 16  7  1  0
 17  2  2  0
 19 16  1  0
M  END
$$$$

     RDKit          3D

 22 24  0  0  0  0  0  0  0  0999 V2000
   -1.0160   -1.2100  -16.6510 O   0  0  0  0  0  0  0  0  0  0  0  0
   -7.4160   -1.2650  -18.3870 C   0  0  0  0  0  0  0  0  0  0  0  0
   -4.4830   -2.3290  -16.7390 C   0  0  2  0  0  0  0  0  0  0  0  0
   -4.3000   -3.1530  -15.5530 C   0  0  0  0  0  0  0  0  0  0  0  0
   -1.1380   -1.1340  -17.8600 C   0  0  0  0  0  0  0  0  0  0  0  0
   -3.4520   -0.7320  -17.9750 C   0  0  2  0  0  0  0  0  0  0  0  0
   -8.2300   -4.1760  -15.2150 O   0  0  0  0  0  0  0  0  0  0  0  0
   -0.0270   -1.3800  -18.5020 C   0  0  0  0  0  0  0  0  0  0  0  0
   -7.7290   -3.2160  -16.3020 C   0  0  2  0  0  0  0  0  0  0  0  0
   -6.3800   -2.3050  -16.7080 C   0  0  2  0  0  0  0  0  0  0  0  0
   -8.9790   -2.6810  -16.8850 C   0  0  0  0  0  0  0  0  0  0  0  0
    0.1500   -1.3880  -19.8090 C   0  0  0  0  0  0  0  0  0  0  0  0
   -5.5250   -1.4350  -18.8710 C   0  0  0  0  0  0  0  0  0  0  0  0
   -5.6260   -3.8320  -15.8450 O   0  0  0  0  0  0  0  0  0  0  0  0
   -2.8500   -2.7490  -17.7640 C   0  0  0  0  0  0  0  0  0  0  0  0
   -3.6740   -2.1450  -17.4220 C   0  0  0  0  0  0  0  0  0  0  0  0
   -2.1280   -0.7440  -19.7410 C   0  0  0  0  0  0  0  0  0  0  0  0
   -4.4910   -0.6920  -19.2160 C   0  0  0  0  0  0  0  0  0  0  0  0
   -8.7600   -1.8940  -17.8400 C   0  0  0  0  0  0  0  0  0  0  0  0
   -0.9410   -0.9000  -20.4030 C   0  0  0  0  0  0  0  0  0  0  0  0
   -2.1780   -0.7430  -18.4880 C   0  0  0  0  0  0  0  0  0  0  0  0
   -6.6760   -1.6250  -17.9400 C   0  0  0  0  0  0  0  0  0  0  0  0
  2 22  1  0
  2 19  1  0
  3 10  1  0
  3  4  1  6
  5  1  2  0
  6 21  1  6
  6 16  1  0
  8  5  1  0
  9  7  1  1
 10  9  1  0
 11  9  1  0
 12  8  2  0
 13 22  1  0
 14  4  1  0
 15 16  2  0
 16  3  1  0
 17 21  2  0
 18 13  1  0
 18  6  1  0
 19 11  1  0
 20 12  1  0
 20 17  1  0
 21  5  1  0
 10 22  1  6
M  END
$$$$

     RDKit          3D

 22 24  0  0  0  0  0  0  0  0999 V2000
   -7.5260   -1.1900  -20.1270 O   0  0  0  0  0  0  0  0  0  0  0  0
   -1.4550   -0.6490  -20.2480 C   0  0  0  0  0  0  0  0  0  0  0  0
   -0.5760   -1.2710  -18.1800 C   0  0  0  0  0  0  0  0  0  0  0  0
   -2.8640   -1.6660  -17.7980 C   0  0  1  0  0  0  0  0  0  0  0  0
   -5.9760   -2.0080  -16.4930 C   0  0  0  0  0  0  0  0  0  0  0  0
   -2.8900   -1.5260  -18.8800 C   0  0  1  0  0  0  0  0  0  0  0  0
   -6.6310   -3.5130  -18.6940 F   0  0  0  0  0  0  0  0  0  0  0  0
   -8.9630   -4.6200  -16.1810 O   0  0  0  0  0  0  0  0  0  0  0  0
   -0.5960   -0.6500  -19.2770 C   0  0  0  0  0  0  0  0  0  0  0  0
   -3.9970   -1.9000  -18.0700 C   0  0  2  0  0  0  0  0  0  0  0  0
   -7.0310   -1.5260  -19.1440 C   0  0  0  0  0  0  0  0  0  0  0  0
   -0.7230   -1.9690  -17.0540 C   0  0  0  0  0  0  0  0  0  0  0  0
   -3.0240   -0.9130  -20.0410 C   0  0  0  0  0  0  0  0  0  0  0  0
   -7.2500   -4.0360  -14.9600 O   0  0  0  0  0  0  0  0  0  0  0  0
   -5.7850   -1.1490  -18.7260 O   0  0  0  0  0  0  0  0  0  0  0  0
   -8.1410   -3.7430  -15.6670 C   0  0  0  0  0  0  0  0  0  0  0  0
   -2.3820   -1.9890  -16.6210 C   0  0  0  0  0  0  0  0  0  0  0  0
   -8.9590   -2.7400  -18.3290 O   0  0  0  0  0  0  0  0  0  0  0  0
   -5.3130   -1.7470  -17.5640 C   0  0  0  0  0  0  0  0  0  0  0  0
   -7.5440   -2.5440  -18.1950 C   0  0  1  0  0  0  0  0  0  0  0  0
   -8.4390   -2.2950  -15.9190 C   0  0  0  0  0  0  0  0  0  0  0  0
   -7.3980   -1.8260  -16.8070 C   0  0  1  0  0  0  0  0  0  0  0  0
  1 11  2  0
  2 13  1  0
  2  9  1  0
  3 12  1  0
  4 17  1  6
  6 13  1  1
  6 10  1  0
  6  4  1  0
  8 16  2  0
  9  3  1  0
 10  4  1  0
 10 19  1  1
 11 15  1  0
 11 20  1  0
 12 17  1  0
 15 19  1  0
 16 14  1  0
 20 18  1  6
 19  5  1  0
 20  7  1  0
 20 22  1  0
 21 16  1  0
 22  5  1  0
 22 21  1  1
M  END
$$$$

     RDKit          3D

 21 22  0  0  0  0  0  0  0  0999 V2000
   -3.6560   -0.7000  -19.7840 C   0  0  0  0  0  0  0  0  0  0  0  0
   -2.1600   -1.8960  -18.2280 C   0  0  0  0  0  0  0  0  0  0  0  0
   -6.7990   -3.3410  -14.7700 O   0  0  0  0  0  0  0  0  0  0  0  0
    0.1480   -0.7820  -19.4190 O   0  0  0  0  0  0  0  0  0  0  0  0
  -10.0460   -1.9280  -17.5690 O   0  0  0  0  0  0  0  0  0  0  0  0
   -1.0540   -0.5380  -19.9100 C   0  0  0  0  0  0  0  0  0  0  0  0
   -5.9960   -1.1850  -19.4670 F   0  0  0  0  0  0  0  0  0  0  0  0
   -7.3940   -2.9340  -15.7440 C   0  0  0  0  0  0  0  0  0  0  0  0
   -1.9450   -3.8580  -17.4490 C   0  0  0  0  0  0  0  0  0  0  0  0
   -1.1480    0.1770  -20.8880 O   0  0  0  0  0  0  0  0  0  0  0  0
   -1.0780   -2.7110  -17.8360 O   0  0  0  0  0  0  0  0  0  0  0  0
   -2.2670   -0.9150  -19.1940 C   0  0  0  0  0  0  0  0  0  0  0  0
   -7.6770   -2.2930  -17.8810 C   0  0  0  0  0  0  0  0  0  0  0  0
   -4.4940   -1.8700  -17.8990 C   0  0  0  0  0  0  0  0  0  0  0  0
   -6.7400   -2.2800  -16.8320 C   0  0  2  0  0  0  0  0  0  0  0  0
   -8.6910   -3.0110  -16.1150 N   0  0  0  0  0  0  0  0  0  0  0  0
   -4.7460   -1.2070  -19.1020 C   0  0  0  0  0  0  0  0  0  0  0  0
   -4.5550   -2.8440  -15.8130 O   0  0  0  0  0  0  0  0  0  0  0  0
   -8.9540   -2.2490  -17.1470 C   0  0  0  0  0  0  0  0  0  0  0  0
   -3.2930   -2.2600  -17.7190 C   0  0  0  0  0  0  0  0  0  0  0  0
   -5.2950   -2.2060  -16.8130 C   0  0  1  0  0  0  0  0  0  0  0  0
  1 12  2  0
  1 17  1  0
  2 11  1  0
  2 20  2  0
  5 19  2  0
  6  4  1  0
  6 12  1  0
  7 17  1  0
  8  3  2  0
 10  6  2  0
 11  9  1  0
 12  2  1  0
 13 19  1  0
 15 13  1  6
 14 20  1  0
 14 21  1  0
 15 21  1  0
 15  8  1  0
 16  8  1  0
 17 14  2  0
 19 16  1  0
 21 18  1  6
M  END
$$$$

     RDKit          3D

 22 23  0  0  0  0  0  0  0  0999 V2000
   -2.6990   -0.6600  -18.9130 C   0  0  0  0  0  0  0  0  0  0  0  0
   -2.3480   -2.1220  -17.0300 N   0  0  0  0  0  0  0  0  0  0  0  0
   -5.5390   -1.9810  -18.3340 C   0  0  0  0  0  0  0  0  0  0  0  0
   -1.5460   -0.6110  -19.2360 O   0  0  0  0  0  0  0  0  0  0  0  0
   -5.7170   -1.4120  -19.5270 O   0  0  0  0  0  0  0  0  0  0  0  0
   -9.9520   -0.9550  -16.8850 C   0  0  0  0  0  0  0  0  0  0  0  0
   -4.5500   -2.5460  -16.4890 C   0  0  2  0  0  0  0  0  0  0  0  0
   -6.5320   -3.2910  -15.2350 O   0  0  0  0  0  0  0  0  0  0  0  0
  -10.2600   -0.6150  -15.8040 O   0  0  0  0  0  0  0  0  0  0  0  0
  -10.0910   -0.2800  -17.8510 O   0  0  0  0  0  0  0  0  0  0  0  0
   -4.5100   -2.1800  -17.8180 C   0  0  0  0  0  0  0  0  0  0  0  0
   -2.6000   -3.3850  -15.4550 O   0  0  0  0  0  0  0  0  0  0  0  0
   -6.6160   -2.3200  -17.5930 C   0  0  1  0  0  0  0  0  0  0  0  0
   -2.9700   -2.7060  -16.0940 C   0  0  0  0  0  0  0  0  0  0  0  0
   -0.9400   -1.7460  -20.1560 C   0  0  0  0  0  0  0  0  0  0  0  0
   -0.5540   -1.0310  -15.6290 C   0  0  0  0  0  0  0  0  0  0  0  0
   -8.9280   -2.0290  -16.9660 C   0  0  0  0  0  0  0  0  0  0  0  0
   -1.0460   -1.7880  -16.9580 C   0  0  0  0  0  0  0  0  0  0  0  0
   -8.9170   -3.1660  -16.6340 O   0  0  0  0  0  0  0  0  0  0  0  0
   -3.0750   -2.0820  -18.4610 C   0  0  1  0  0  0  0  0  0  0  0  0
   -6.0700   -2.8630  -16.2790 C   0  0  0  0  0  0  0  0  0  0  0  0
   -7.9980   -1.8880  -18.1440 C   0  0  0  0  0  0  0  0  0  0  0  0
  2 18  1  0
  2 14  1  0
  3 11  2  0
  3 13  1  0
  4  1  1  0
  5  3  1  0
  6  9  1  0
  7 11  1  0
  7 21  1  6
  7 14  1  0
 10  6  2  0
 13 22  1  1
 13 21  1  0
 14 12  2  0
 15  4  1  0
 17  6  1  0
 17 19  2  0
 18 16  1  0
 20  1  1  1
 20 11  1  0
 20  2  1  0
 21  8  2  0
 22 17  1  0
M  END
$$$$

     RDKit          3D

 20 21  0  0  0  0  0  0  0  0999 V2000
   -1.1320   -2.6930  -18.0860 C   0  0  0  0  0  0  0  0  0  0  0  0
   -3.1570   -1.5340  -17.7640 C   0  0  0  0  0  0  0  0  0  0  0  0
   -6.1420   -1.8840  -18.4070 C   0  0  0  0  0  0  0  0  0  0  0  0
   -7.6200   -1.4820  -18.8040 S   0  0  0  0  0  0  0  0  0  0  0  0
   -3.5250   -1.4250  -16.5220 O   0  0  0  0  0  0  0  0  0  0  0  0
   -7.3890   -2.5880  -16.7000 C   0  0  2  0  0  0  0  0  0  0  0  0
   -7.7360   -3.6880  -15.8090 C   0  0  0  0  0  0  0  0  0  0  0  0
   -5.0250   -1.6210  -19.1480 N   0  0  0  0  0  0  0  0  0  0  0  0
   -9.4500   -1.0190  -16.7730 C   0  0  0  0  0  0  0  0  0  0  0  0
   -1.8510   -1.4480  -18.1550 C   0  0  0  0  0  0  0  0  0  0  0  0
   -8.2280   -1.6550  -17.3650 C   0  0  0  0  0  0  0  0  0  0  0  0
    0.2290   -2.6560  -17.9350 C   0  0  0  0  0  0  0  0  0  0  0  0
   -1.7700    0.5970  -19.0910 O   0  0  0  0  0  0  0  0  0  0  0  0
   -6.0920   -2.4850  -17.1580 N   0  0  0  0  0  0  0  0  0  0  0  0
   -7.3000   -4.1270  -14.8530 O   0  0  0  0  0  0  0  0  0  0  0  0
   -3.8810   -1.5070  -18.5470 N   0  0  0  0  0  0  0  0  0  0  0  0
    0.1030   -0.2650  -17.8760 C   0  0  0  0  0  0  0  0  0  0  0  0
   -1.1790   -0.3750  -18.5380 C   0  0  0  0  0  0  0  0  0  0  0  0
    0.8580   -1.3770  -17.9470 C   0  0  0  0  0  0  0  0  0  0  0  0
   -8.8240   -4.2590  -16.2990 O   0  0  0  0  0  0  0  0  0  0  0  0
  1 12  1  0
  2  5  2  0
  3 14  2  0
  4  3  1  0
  4 11  1  0
  6  7  1  6
  7 15  1  0
  8 16  1  0
  8  3  1  0
 10  1  1  0
 10  2  1  0
 11  9  1  0
 11  6  1  0
 13 18  2  0
 14  6  1  0
 16  2  1  0
 18 10  1  0
 18 17  1  0
 19 12  2  0
 19 17  1  0
 20  7  2  0
M  END
$$$$

     RDKit          3D

 19 22  0  0  0  0  0  0  0  0999 V2000
   -4.0930   -0.1400  -20.4920 N   0  0  0  0  0  0  0  0  0  0  0  0
   -2.6090   -1.1190  -18.3420 N   0  0  0  0  0  0  0  0  0  0  0  0
   -5.6170   -2.3840  -16.7110 C   0  0  0  0  0  0  0  0  0  0  0  0
   -1.3520   -1.2170  -20.0880 C   0  0  0  0  0  0  0  0  0  0  0  0
   -5.2750   -1.5080  -18.8610 C   0  0  0  0  0  0  0  0  0  0  0  0
   -5.3890   -2.8990  -15.4680 C   0  0  0  0  0  0  0  0  0  0  0  0
   -6.6390   -3.3520  -14.9890 N   0  0  0  0  0  0  0  0  0  0  0  0
   -1.9060   -1.9550  -19.1570 C   0  0  0  0  0  0  0  0  0  0  0  0
   -0.8380    0.1940  -19.0420 C   0  0  1  0  0  0  0  0  0  0  0  0
   -3.4830   -1.5380  -17.3250 C   0  0  0  0  0  0  0  0  0  0  0  0
   -4.8150   -1.8480  -17.6210 C   0  0  0  0  0  0  0  0  0  0  0  0
   -1.7170    0.0010  -18.0490 C   0  0  2  0  0  0  0  0  0  0  0  0
   -6.6880   -1.7020  -19.0830 N   0  0  0  0  0  0  0  0  0  0  0  0
   -0.0050   -0.6140  -18.3770 C   0  0  0  0  0  0  0  0  0  0  0  0
   -7.6270   -3.1110  -15.8850 N   0  0  0  0  0  0  0  0  0  0  0  0
   -8.7820   -2.0920  -18.1320 O   0  0  0  0  0  0  0  0  0  0  0  0
   -6.9220   -2.5540  -16.9510 C   0  0  0  0  0  0  0  0  0  0  0  0
   -4.6150   -0.7650  -19.7320 C   0  0  0  0  0  0  0  0  0  0  0  0
   -7.5260   -2.1610  -18.1080 C   0  0  0  0  0  0  0  0  0  0  0  0
  1 18  3  0
  2 12  1  0
  2 10  1  0
  3  6  1  0
  4  8  1  0
  5 11  1  0
  6  7  1  0
  8  2  1  0
  9  4  1  6
  9 14  1  0
  9 12  1  0
 11 10  2  3
 11  3  1  0
 12 14  1  1
 13  5  2  0
 13 19  1  0
 15  7  2  0
 16 19  2  0
 17  3  2  0
 17 15  1  0
 18  5  1  0
 19 17  1  0
M  END
$$$$

     RDKit          3D

 19 20  0  0  0  0  0  0  0  0999 V2000
   -3.5580   -2.9260  -15.2220 C   0  0  0  0  0  0  0  0  0  0  0  0
   -7.3330   -3.5970  -18.3070 O   0  0  0  0  0  0  0  0  0  0  0  0
   -6.3830   -1.6560  -17.8300 C   0  0  2  0  0  0  0  0  0  0  0  0
   -2.1090   -2.6760  -15.0860 C   0  0  0  0  0  0  0  0  0  0  0  0
   -6.0430   -1.3070  -19.2310 C   0  0  2  0  0  0  0  0  0  0  0  0
   -1.3630   -3.3390  -14.0750 O   0  0  0  0  0  0  0  0  0  0  0  0
   -3.7380   -1.0580  -18.4460 C   0  0  0  0  0  0  0  0  0  0  0  0
   -1.9510   -1.3190  -20.0940 C   0  0  0  0  0  0  0  0  0  0  0  0
   -5.1740   -1.1980  -18.5110 C   0  0  2  0  0  0  0  0  0  0  0  0
   -3.2580   -0.6630  -19.8410 C   0  0  1  0  0  0  0  0  0  0  0  0
   -4.1990   -2.3110  -16.2910 C   0  0  0  0  0  0  0  0  0  0  0  0
   -1.4630   -1.6470  -15.8420 C   0  0  0  0  0  0  0  0  0  0  0  0
   -7.4700   -2.4100  -18.0310 C   0  0  0  0  0  0  0  0  0  0  0  0
   -3.9500   -0.1900  -20.9920 O   0  0  0  0  0  0  0  0  0  0  0  0
   -9.2090   -1.2420  -16.6360 C   0  0  0  0  0  0  0  0  0  0  0  0
   -7.1940   -0.6510  -19.9370 O   0  0  0  0  0  0  0  0  0  0  0  0
   -8.8000   -1.9160  -17.7340 O   0  0  0  0  0  0  0  0  0  0  0  0
   -3.4470   -1.4020  -17.0050 C   0  0  0  0  0  0  0  0  0  0  0  0
   -2.1650   -0.9810  -16.8870 C   0  0  0  0  0  0  0  0  0  0  0  0
  1  4  2  0
  2 13  2  0
  3 13  1  6
  4  6  1  0
  5 16  1  1
  5  9  1  0
  5  3  1  0
  7 10  1  0
  7 18  1  0
  9  7  1  6
  9  3  1  0
 10  8  1  6
 11  1  1  0
 12  4  1  0
 13 17  1  0
 14 10  1  0
 17 15  1  0
 18 19  1  0
 18 11  2  0
 19 12  2  0
M  END
$$$$

     RDKit          3D

 21 22  0  0  0  0  0  0  0  0999 V2000
   -2.2360   -1.3090  -17.9060 C   0  0  2  0  0  0  0  0  0  0  0  0
   -9.3750   -1.7170  -16.2330 N   0  0  0  0  0  0  0  0  0  0  0  0
   -1.8540   -2.8350  -15.9090 C   0  0  0  0  0  0  0  0  0  0  0  0
   -6.6950   -1.7570  -18.7500 C   0  0  2  0  0  0  0  0  0  0  0  0
   -0.9450   -0.9840  -18.1460 O   0  0  0  0  0  0  0  0  0  0  0  0
   -7.7850   -1.7830  -17.7120 C   0  0  0  0  0  0  0  0  0  0  0  0
   -3.8240   -2.2190  -16.8470 O   0  0  0  0  0  0  0  0  0  0  0  0
   -5.2730   -2.6080  -16.7820 O   0  0  0  0  0  0  0  0  0  0  0  0
   -2.4500   -2.6550  -17.1360 C   0  0  1  0  0  0  0  0  0  0  0  0
   -2.4990   -3.6730  -14.9630 O   0  0  0  0  0  0  0  0  0  0  0  0
   -9.5700   -0.8560  -17.2490 C   0  0  0  0  0  0  0  0  0  0  0  0
   -7.8360   -3.3960  -15.9010 O   0  0  0  0  0  0  0  0  0  0  0  0
  -10.9280   -0.1370  -17.3270 C   0  0  0  0  0  0  0  0  0  0  0  0
   -6.7600   -2.9910  -19.4480 O   0  0  0  0  0  0  0  0  0  0  0  0
   -8.6730   -0.9830  -18.1480 N   0  0  0  0  0  0  0  0  0  0  0  0
   -5.3890   -1.9860  -17.9370 C   0  0  2  0  0  0  0  0  0  0  0  0
   -0.6560   -2.4710  -15.8010 O   0  0  0  0  0  0  0  0  0  0  0  0
   -4.2410   -1.3010  -18.1950 C   0  0  0  0  0  0  0  0  0  0  0  0
   -3.0880   -1.5820  -19.0120 C   0  0  1  0  0  0  0  0  0  0  0  0
   -2.8770   -0.7280  -20.1190 O   0  0  0  0  0  0  0  0  0  0  0  0
   -8.3220   -2.4410  -16.3830 C   0  0  0  0  0  0  0  0  0  0  0  0
  1  5  1  6
  1  9  1  0
  3 17  2  0
  3 10  1  0
  4 14  1  6
  4  6  1  0
  6 21  1  0
  7  8  1  0
  9  7  1  0
  9  3  1  1
 11  2  2  0
 13 11  1  0
 15  6  2  0
 15 11  1  0
 16  4  1  0
 16  8  1  0
 16 18  1  1
 19 20  1  6
 19 18  1  0
 19  1  1  0
 21  2  1  0
 21 12  2  0
M  END
$$$$

     RDKit          3D

 22 22  0  0  0  0  0  0  0  0999 V2000
   -6.0230   -1.5740  -17.6810 C   0  0  0  0  0  0  0  0  0  0  0  0
   -8.3740   -2.8940  -17.1530 C   0  0  0  0  0  0  0  0  0  0  0  0
   -0.0700    0.3750  -18.6670 C   0  0  0  0  0  0  0  0  0  0  0  0
   -2.2550   -1.1810  -19.1000 N   0  0  0  0  0  0  0  0  0  0  0  0
   -3.1340   -0.9120  -19.6470 C   0  0  0  0  0  0  0  0  0  0  0  0
   -4.6310   -1.3320  -19.3100 C   0  0  0  0  0  0  0  0  0  0  0  0
   -3.3090   -3.9270  -17.2140 C   0  0  0  0  0  0  0  0  0  0  0  0
   -3.2840   -1.8210  -16.0950 C   0  0  0  0  0  0  0  0  0  0  0  0
   -7.1200   -3.0180  -19.2470 N   0  0  0  0  0  0  0  0  0  0  0  0
   -2.5800   -0.8460  -17.9910 C   0  0  0  0  0  0  0  0  0  0  0  0
   -0.3110   -1.1170  -20.7410 C   0  0  0  0  0  0  0  0  0  0  0  0
    0.7470    1.1950  -18.9790 N   0  0  0  0  0  0  0  0  0  0  0  0
   -0.5460    0.4550  -17.3430 N   0  0  0  0  0  0  0  0  0  0  0  0
   -3.9200   -2.8800  -16.6800 C   0  0  1  0  0  0  0  0  0  0  0  0
   -4.5180   -1.6860  -17.9310 C   0  0  2  0  0  0  0  0  0  0  0  0
   -5.1580   -3.1340  -15.7660 C   0  0  0  0  0  0  0  0  0  0  0  0
   -1.3740   -0.3240  -16.7610 C   0  0  0  0  0  0  0  0  0  0  0  0
   -1.1200   -0.4260  -19.5640 C   0  0  2  0  0  0  0  0  0  0  0  0
   -7.3770   -2.1550  -18.0940 C   0  0  2  0  0  0  0  0  0  0  0  0
   -9.1920   -3.5510  -17.7330 O   0  0  0  0  0  0  0  0  0  0  0  0
   -8.0600   -3.0490  -15.9100 O   0  0  0  0  0  0  0  0  0  0  0  0
   -7.9240   -0.8010  -18.3090 C   0  0  0  0  0  0  0  0  0  0  0  0
  2 21  1  0
  3 13  1  0
  4 10  1  0
  5  6  1  0
  5  4  1  0
 14  7  1  6
  9 19  1  0
 10 17  1  0
 12  3  2  0
 13 17  1  0
 14  8  1  0
 14 16  1  0
 15  6  1  6
 15  1  1  0
 15 14  1  0
 18 11  1  1
 18  4  1  0
 18  3  1  0
 19 22  1  6
 19  1  1  0
 19  2  1  0
 20  2  2  0
M  END
$$$$

     RDKit          3D

 21 23  0  0  0  0  0  0  0  0999 V2000
   -3.7050   -1.6220  -17.9090 C   0  0  0  0  0  0  0  0  0  0  0  0
   -4.0410   -3.2180  -16.5150 C   0  0  0  0  0  0  0  0  0  0  0  0
   -6.0030   -1.6720  -18.3240 C   0  0  0  0  0  0  0  0  0  0  0  0
   -5.2360   -3.0470  -16.4970 C   0  0  0  0  0  0  0  0  0  0  0  0
   -2.8270   -2.3210  -17.2520 C   0  0  2  0  0  0  0  0  0  0  0  0
   -8.2570   -1.0280  -18.5600 N   0  0  0  0  0  0  0  0  0  0  0  0
   -7.0880   -1.1550  -19.1310 C   0  0  0  0  0  0  0  0  0  0  0  0
   -4.7250   -1.3560  -18.5540 C   0  0  0  0  0  0  0  0  0  0  0  0
   -9.8130   -1.2730  -16.6450 O   0  0  0  0  0  0  0  0  0  0  0  0
   -6.2850   -2.4050  -17.1900 C   0  0  0  0  0  0  0  0  0  0  0  0
   -7.7470   -2.4860  -16.8060 C   0  0  1  0  0  0  0  0  0  0  0  0
   -8.1630   -3.3680  -15.8560 O   0  0  0  0  0  0  0  0  0  0  0  0
   -1.5660   -3.8560  -17.7160 O   0  0  0  0  0  0  0  0  0  0  0  0
    0.0630   -0.1400  -16.1430 C   0  0  0  0  0  0  0  0  0  0  0  0
   -1.5630   -1.6010  -17.3540 C   0  0  2  0  0  0  0  0  0  0  0  0
   -2.1420    0.6720  -16.4600 C   0  0  0  0  0  0  0  0  0  0  0  0
   -1.7520   -2.7650  -17.1920 C   0  0  1  0  0  0  0  0  0  0  0  0
   -1.1880   -0.3850  -16.4400 C   0  0  0  0  0  0  0  0  0  0  0  0
   -8.5400   -1.5770  -17.3500 C   0  0  0  0  0  0  0  0  0  0  0  0
   -0.6380   -1.4000  -18.6060 C   0  0  0  0  0  0  0  0  0  0  0  0
  -10.7100   -0.4290  -17.3430 C   0  0  0  0  0  0  0  0  0  0  0  0
  2  4  1  0
  3 10  1  0
  5  1  1  6
  5 17  1  0
  5  2  1  0
  6 19  2  0
  7  6  1  0
  7  3  1  0
  8  3  2  0
  8  1  1  0
 10 11  1  0
 10  4  2  0
 11 12  1  1
 15 20  1  6
 15  5  1  0
 15 17  1  0
 15 18  1  0
 16 18  1  0
 17 13  1  6
 18 14  2  0
 19 11  1  0
 19  9  1  0
 21  9  1  0
M  END
$$$$

     RDKit          3D

 20 24  0  0  0  0  0  0  0  0999 V2000
   -3.9360   -1.1500  -19.3150 C   0  0  0  0  0  0  0  0  0  0  0  0
   -3.5230   -3.1130  -15.4020 C   0  0  0  0  0  0  0  0  0  0  0  0
   -2.3450   -2.5450  -16.0950 C   0  0  1  0  0  0  0  0  0  0  0  0
   -2.5280   -1.8280  -17.5190 C   0  0  1  0  0  0  0  0  0  0  0  0
   -0.2610   -2.9190  -18.6430 C   0  0  0  0  0  0  0  0  0  0  0  0
   -1.0430   -1.8330  -18.0110 C   0  0  2  0  0  0  0  0  0  0  0  0
   -7.6310   -1.7900  -18.7800 C   0  0  2  0  0  0  0  0  0  0  0  0
   -3.4680   -2.2210  -16.4950 C   0  0  1  0  0  0  0  0  0  0  0  0
  -10.1310   -1.7840  -16.8600 O   0  0  0  0  0  0  0  0  0  0  0  0
   -6.3150   -1.6490  -19.4020 C   0  0  0  0  0  0  0  0  0  0  0  0
    0.0940   -1.5020  -16.6520 C   0  0  0  0  0  0  0  0  0  0  0  0
   -2.7210   -1.0270  -18.5180 C   0  0  0  0  0  0  0  0  0  0  0  0
   -5.0110   -1.1660  -18.5390 C   0  0  0  0  0  0  0  0  0  0  0  0
    1.4250   -1.7890  -17.3530 C   0  0  1  0  0  0  0  0  0  0  0  0
   -7.6770   -1.8520  -17.3880 C   0  0  2  0  0  0  0  0  0  0  0  0
   -8.8450   -3.7600  -16.3130 O   0  0  0  0  0  0  0  0  0  0  0  0
   -8.1010   -3.2840  -18.3160 C   0  0  0  0  0  0  0  0  0  0  0  0
   -8.7690   -2.2370  -17.0280 C   0  0  0  0  0  0  0  0  0  0  0  0
    1.1510   -2.4530  -18.6490 C   0  0  2  0  0  0  0  0  0  0  0  0
    1.7950   -1.0190  -18.5020 C   0  0  0  0  0  0  0  0  0  0  0  0
  1 13  1  0
  1 12  1  0
  3  2  1  6
  4 12  1  1
  4  8  1  0
  4  3  1  0
  6  5  1  1
  6  4  1  0
  6 11  1  0
  7 10  1  1
  7 17  1  0
  7 15  1  0
  8  3  1  0
  8  2  1  6
 10 13  1  0
 14 20  1  6
 14 11  1  0
 15 18  1  6
 17 15  1  0
 18  9  2  0
 18 16  1  0
 19  5  1  6
 19 20  1  0
 19 14  1  0
M  END
$$$$

     RDKit          3D

 19 21  0  0  0  0  0  0  0  0999 V2000
   -8.2520   -1.6610  -18.0970 N   0  0  0  0  0  0  0  0  0  0  0  0
   -6.9700   -1.9560  -17.8050 C   0  0  0  0  0  0  0  0  0  0  0  0
   -3.3640   -1.2420  -19.0030 C   0  0  0  0  0  0  0  0  0  0  0  0
   -4.5260   -1.7140  -18.1380 C   0  0  0  0  0  0  0  0  0  0  0  0
   -9.2390   -1.9240  -17.2950 N   0  0  0  0  0  0  0  0  0  0  0  0
   -2.7240    0.6080  -17.2850 O   0  0  0  0  0  0  0  0  0  0  0  0
   -5.9060   -1.6240  -18.6850 C   0  0  0  0  0  0  0  0  0  0  0  0
   -5.2650   -2.9000  -16.0690 C   0  0  0  0  0  0  0  0  0  0  0  0
   -0.4730   -1.2290  -15.8990 C   0  0  0  0  0  0  0  0  0  0  0  0
   -4.2410   -2.3280  -16.8450 C   0  0  0  0  0  0  0  0  0  0  0  0
   -2.8470   -2.5330  -16.4320 C   0  0  0  0  0  0  0  0  0  0  0  0
   -2.5660   -3.5370  -15.3350 C   0  0  0  0  0  0  0  0  0  0  0  0
   -7.7610   -3.1770  -15.7790 C   0  0  0  0  0  0  0  0  0  0  0  0
   -1.3840   -1.6760  -17.1790 S   0  0  1  0  0  0  0  0  0  0  0  0
   -8.9820   -2.6960  -16.1520 C   0  0  0  0  0  0  0  0  0  0  0  0
   -2.2970   -0.4390  -18.1180 C   0  0  1  0  0  0  0  0  0  0  0  0
   -6.6710   -2.7130  -16.6020 C   0  0  0  0  0  0  0  0  0  0  0  0
   -0.7080   -2.7180  -18.1040 O   0  0  0  0  0  0  0  0  0  0  0  0
   -7.6110   -4.0800  -14.8530 O   0  0  0  0  0  0  0  0  0  0  0  0
  1  2  2  0
  1  5  1  0
  2 17  1  0
  3  4  1  0
  3 16  1  0
  4 10  1  0
  5 15  2  0
  7  4  2  0
  7  2  1  0
 10 11  1  0
 10  8  2  0
 11 12  1  0
 13 19  1  0
 14 11  1  0
 14  9  1  1
 15 13  1  0
 16  6  1  1
 16 14  1  0
 17  8  1  0
 17 13  2  0
 18 14  1  0
M  END
$$$$

     RDKit          3D

 20 23  0  0  0  0  0  0  0  0999 V2000
   -2.4280   -1.4350  -17.6270 C   0  0  0  0  0  0  0  0  0  0  0  0
   -1.2880   -3.4610  -17.1000 N   0  0  0  0  0  0  0  0  0  0  0  0
   -3.1680   -2.3770  -16.6980 C   0  0  2  0  0  0  0  0  0  0  0  0
   -7.2140   -3.3340  -15.0150 O   0  0  0  0  0  0  0  0  0  0  0  0
   -5.5370   -1.5530  -17.8390 C   0  0  1  0  0  0  0  0  0  0  0  0
   -1.6360    0.4030  -19.1490 C   0  0  0  0  0  0  0  0  0  0  0  0
   -8.4080   -2.1090  -16.7870 C   0  0  0  0  0  0  0  0  0  0  0  0
   -2.3970   -3.4270  -16.2600 C   0  0  0  0  0  0  0  0  0  0  0  0
   -6.1930   -1.2460  -19.2850 C   0  0  0  0  0  0  0  0  0  0  0  0
   -2.5050   -0.0580  -18.0720 C   0  0  0  0  0  0  0  0  0  0  0  0
   -6.6130   -2.3990  -18.7470 C   0  0  2  0  0  0  0  0  0  0  0  0
   -6.2810   -0.7360  -20.2940 O   0  0  0  0  0  0  0  0  0  0  0  0
   -8.7190   -4.3910  -16.2230 O   0  0  0  0  0  0  0  0  0  0  0  0
   -4.6430   -2.0920  -16.5070 C   0  0  0  0  0  0  0  0  0  0  0  0
   -0.4980   -1.8230  -19.1150 C   0  0  0  0  0  0  0  0  0  0  0  0
   -0.7320   -0.4980  -19.6660 C   0  0  0  0  0  0  0  0  0  0  0  0
   -7.5370   -1.6370  -17.8320 C   0  0  2  0  0  0  0  0  0  0  0  0
   -8.1230   -3.3600  -15.8870 C   0  0  0  0  0  0  0  0  0  0  0  0
   -1.3240   -2.3250  -18.0410 C   0  0  0  0  0  0  0  0  0  0  0  0
   -6.4980   -0.8190  -17.1090 O   0  0  0  0  0  0  0  0  0  0  0  0
  1  3  1  0
  2  8  1  0
  3 14  1  6
  3  8  1  0
  5 20  1  0
  5 14  1  1
  6 10  1  0
  7 18  1  0
  9  5  1  0
 10  1  2  0
 11  9  1  6
 11  5  1  0
 11 17  1  0
 12  9  2  0
 13 18  2  0
 15 19  2  0
 16  6  2  0
 16 15  1  0
 17 20  1  0
 17  7  1  1
 18  4  1  0
 19  1  1  0
 19  2  1  0
M  END
$$$$

     RDKit          3D

 22 24  0  0  0  0  0  0  0  0999 V2000
   -6.9650   -2.6430  -16.2020 C   0  0  2  0  0  0  0  0  0  0  0  0
   -1.4900   -2.3670  -16.7340 C   0  0  2  0  0  0  0  0  0  0  0  0
   -6.0070   -0.8420  -20.5410 C   0  0  0  0  0  0  0  0  0  0  0  0
   -2.8740   -3.8190  -15.6930 F   0  0  0  0  0  0  0  0  0  0  0  0
   -0.9690   -1.2700  -17.2870 C   0  0  0  0  0  0  0  0  0  0  0  0
   -2.9480    0.4200  -20.8020 O   0  0  0  0  0  0  0  0  0  0  0  0
   -3.7080   -0.2090  -20.2330 C   0  0  0  0  0  0  0  0  0  0  0  0
   -4.8850   -0.7390  -19.9080 N   0  0  0  0  0  0  0  0  0  0  0  0
   -2.6730   -2.6940  -16.4750 C   0  0  0  0  0  0  0  0  0  0  0  0
   -3.4050   -2.0970  -16.8650 C   0  0  1  0  0  0  0  0  0  0  0  0
   -4.7700   -1.1250  -18.8880 C   0  0  0  0  0  0  0  0  0  0  0  0
   -2.1950   -0.5310  -17.9290 C   0  0  0  0  0  0  0  0  0  0  0  0
   -8.2600   -1.7310  -17.9160 N   0  0  0  0  0  0  0  0  0  0  0  0
   -3.4510   -1.4780  -18.2820 C   0  0  1  0  0  0  0  0  0  0  0  0
   -7.0260   -1.4170  -19.8530 C   0  0  0  0  0  0  0  0  0  0  0  0
   -9.3590   -2.7400  -16.0110 O   0  0  0  0  0  0  0  0  0  0  0  0
   -7.0830   -1.8050  -18.3960 C   0  0  2  0  0  0  0  0  0  0  0  0
   -6.7640   -3.7180  -15.3470 O   0  0  0  0  0  0  0  0  0  0  0  0
   -8.2030   -2.4070  -16.7410 C   0  0  0  0  0  0  0  0  0  0  0  0
   -6.1020   -2.4280  -17.2600 C   0  0  1  0  0  0  0  0  0  0  0  0
   -0.3250   -2.9890  -15.7950 O   0  0  0  0  0  0  0  0  0  0  0  0
   -4.8790   -2.1310  -16.3790 O   0  0  0  0  0  0  0  0  0  0  0  0
  1 18  1  6
  2  9  1  0
  2 21  1  1
  3  8  1  0
  3 15  2  3
  5  2  1  0
  6  7  1  0
  7  8  1  0
  8 11  1  0
  9  4  1  0
 10  9  1  0
 10 22  1  6
 12  5  1  0
 13 19  1  0
 14 11  1  1
 14 12  1  0
 14 10  1  0
 17 15  1  0
 17 13  1  6
 17 20  1  0
 19  1  1  0
 19 16  2  0
 20 22  1  1
 20  1  1  0
M  END
$$$$

     RDKit          3D

 31 33  0  0  0  0  0  0  0  0999 V2000
  -10.5660    0.3130  -17.7970 C   0  0  0  0  0  0  0  0  0  0  0  0
   -8.1160   -3.7980  -16.8310 C   0  0  0  0  0  0  0  0  0  0  0  0
    1.6120   -2.2580  -19.7110 C   0  0  0  0  0  0  0  0  0  0  0  0
   -2.8990   -2.5040  -16.4200 C   0  0  1  0  0  0  0  0  0  0  0  0
   -9.6240   -1.8340  -16.9810 C   0  0  0  0  0  0  0  0  0  0  0  0
   -4.8570   -0.9530  -20.0970 N   0  0  0  0  0  0  0  0  0  0  0  0
   -8.3070   -1.5090  -16.2320 C   0  0  0  0  0  0  0  0  0  0  0  0
   -6.0460   -1.2890  -19.1080 S   0  0  1  0  0  0  0  0  0  0  0  0
   -0.9610   -0.5170  -15.3490 O   0  0  0  0  0  0  0  0  0  0  0  0
    2.6040   -1.6720  -18.9510 N   0  0  0  0  0  0  0  0  0  0  0  0
   -7.3860   -2.5690  -16.7530 N   0  0  0  0  0  0  0  0  0  0  0  0
   -3.8660   -0.6070  -17.3420 C   0  0  0  0  0  0  0  0  0  0  0  0
   -1.4720   -2.8760  -16.0890 C   0  0  2  0  0  0  0  0  0  0  0  0
   -8.6850   -4.1050  -17.9510 O   0  0  0  0  0  0  0  0  0  0  0  0
   -4.0470   -3.2780  -15.9940 O   0  0  0  0  0  0  0  0  0  0  0  0
    2.0700   -1.1010  -17.7710 C   0  0  0  0  0  0  0  0  0  0  0  0
   -1.6600   -1.4220  -16.2060 C   0  0  0  0  0  0  0  0  0  0  0  0
    0.1710   -2.6550  -17.8430 C   0  0  0  0  0  0  0  0  0  0  0  0
   -5.1740   -3.3290  -16.3310 C   0  0  0  0  0  0  0  0  0  0  0  0
    0.4970   -3.0150  -19.0900 C   0  0  0  0  0  0  0  0  0  0  0  0
   -7.2400   -0.4960  -19.4090 O   0  0  0  0  0  0  0  0  0  0  0  0
   -3.2390    0.2430  -17.8340 O   0  0  0  0  0  0  0  0  0  0  0  0
   -1.0670   -3.5390  -17.5080 C   0  0  0  0  0  0  0  0  0  0  0  0
  -10.6620   -0.8020  -16.7120 C   0  0  0  0  0  0  0  0  0  0  0  0
   -6.3900   -2.7090  -19.2620 O   0  0  0  0  0  0  0  0  0  0  0  0
   -5.4530   -1.0100  -17.4340 C   0  0  2  0  0  0  0  0  0  0  0  0
   -3.0110   -1.4050  -16.6170 N   0  0  0  0  0  0  0  0  0  0  0  0
   -8.2930   -4.3650  -15.5840 O   0  0  0  0  0  0  0  0  0  0  0  0
    0.9340   -1.5180  -17.2420 C   0  0  0  0  0  0  0  0  0  0  0  0
  -12.0450    0.9920  -17.9440 C   0  0  0  0  0  0  0  0  0  0  0  0
   -5.9610   -2.3000  -16.7680 C   0  0  1  0  0  0  0  0  0  0  0  0
  1 24  1  0
  2 11  1  0
  2 28  1  0
  3 20  1  0
  3 10  1  0
  4 13  1  0
  4 15  1  1
  5 24  1  0
  5  7  1  0
  8  6  1  6
 10 16  1  0
 11  7  1  0
 12 27  1  0
 13 23  1  6
 14  2  2  0
 16 29  2  0
 17 13  1  0
 17  9  2  0
 18 23  1  0
 18 29  1  0
 19 15  1  0
 20 18  2  0
 21  8  2  0
 22 12  2  0
 25  8  2  0
 26  8  1  0
 26 12  1  6
 26 31  1  0
 27  4  1  0
 27 17  1  0
 30  1  1  0
 31 11  1  6
 31 19  1  0
M  END
$$$$

     RDKit          3D

 21 23  0  0  0  0  0  0  0  0999 V2000
   -5.9190   -3.7100  -18.1590 C   0  0  0  0  0  0  0  0  0  0  0  0
   -0.8360   -2.5120  -17.9430 C   0  0  0  0  0  0  0  0  0  0  0  0
   -6.0830   -2.2870  -17.3190 C   0  0  2  0  0  0  0  0  0  0  0  0
   -4.2980   -0.9190  -19.0810 C   0  0  0  0  0  0  0  0  0  0  0  0
   -3.3160   -1.9390  -16.7030 C   0  0  0  0  0  0  0  0  0  0  0  0
   -3.0520   -1.7370  -17.6960 C   0  0  0  0  0  0  0  0  0  0  0  0
   -7.3250   -4.6840  -15.1270 O   0  0  0  0  0  0  0  0  0  0  0  0
   -4.8470   -1.2620  -17.8860 C   0  0  0  0  0  0  0  0  0  0  0  0
   -7.1110   -1.0190  -19.1010 O   0  0  0  0  0  0  0  0  0  0  0  0
   -6.2820   -2.6150  -15.8660 C   0  0  0  0  0  0  0  0  0  0  0  0
   -3.3370   -0.6100  -19.9960 C   0  0  0  0  0  0  0  0  0  0  0  0
   -0.9160   -2.6280  -16.4600 C   0  0  0  0  0  0  0  0  0  0  0  0
   -1.9750   -1.0060  -19.6700 C   0  0  0  0  0  0  0  0  0  0  0  0
   -8.6530   -2.2220  -17.6260 C   0  0  0  0  0  0  0  0  0  0  0  0
   -2.0320   -2.7490  -15.8480 C   0  0  0  0  0  0  0  0  0  0  0  0
   -1.0380   -0.4680  -20.5230 O   0  0  0  0  0  0  0  0  0  0  0  0
   -8.7140   -3.1910  -16.4680 C   0  0  0  0  0  0  0  0  0  0  0  0
   -2.0530   -1.6320  -18.4260 C   0  0  0  0  0  0  0  0  0  0  0  0
   -9.6430   -1.9080  -18.3150 O   0  0  0  0  0  0  0  0  0  0  0  0
   -7.3420   -1.5920  -17.8140 C   0  0  1  0  0  0  0  0  0  0  0  0
   -7.6260   -3.2570  -15.4350 C   0  0  1  0  0  0  0  0  0  0  0  0
  2 12  1  0
  3  1  1  6
  3 10  1  0
  4  8  1  0
  5 15  1  0
  6  5  1  0
  8  6  2  0
  8  3  1  0
 10 21  1  0
 11 13  1  0
 11  4  2  0
 12 15  1  0
 13 18  2  0
 14 17  1  0
 16 13  1  0
 17 21  1  0
 18  2  1  0
 18  6  1  0
 19 14  2  0
 20  9  1  6
 20 14  1  0
 20  3  1  0
 21  7  1  6
M  END
$$$$

     RDKit          3D

 22 25  0  0  0  0  0  0  0  0999 V2000
   -7.0390   -1.7930  -17.6280 C   0  0  1  0  0  0  0  0  0  0  0  0
   -7.0320   -2.7780  -19.7920 C   0  0  0  0  0  0  0  0  0  0  0  0
   -1.5610    0.2000  -19.9510 C   0  0  0  0  0  0  0  0  0  0  0  0
   -8.5900   -1.7650  -16.9530 C   0  0  0  0  0  0  0  0  0  0  0  0
   -2.8240    0.1640  -20.5230 C   0  0  0  0  0  0  0  0  0  0  0  0
   -5.3210   -3.5710  -16.9670 C   0  0  0  0  0  0  0  0  0  0  0  0
   -3.5310   -1.1310  -18.7320 C   0  0  0  0  0  0  0  0  0  0  0  0
   -8.6690   -2.8030  -16.0370 N   0  0  0  0  0  0  0  0  0  0  0  0
   -2.2310   -1.2110  -18.1330 C   0  0  0  0  0  0  0  0  0  0  0  0
   -7.4450   -3.3530  -15.8750 C   0  0  0  0  0  0  0  0  0  0  0  0
   -3.1590   -2.9770  -16.6710 C   0  0  0  0  0  0  0  0  0  0  0  0
   -7.2090   -4.1820  -15.0000 O   0  0  0  0  0  0  0  0  0  0  0  0
   -4.6560   -1.4890  -17.6710 C   0  0  1  0  0  0  0  0  0  0  0  0
   -5.8670   -0.9970  -17.9370 C   0  0  0  0  0  0  0  0  0  0  0  0
   -9.5570   -0.9790  -17.2250 C   0  0  0  0  0  0  0  0  0  0  0  0
   -3.7920   -0.3040  -19.8250 C   0  0  0  0  0  0  0  0  0  0  0  0
    0.0480   -0.1760  -18.3180 O   0  0  0  0  0  0  0  0  0  0  0  0
   -6.5340   -2.9240  -16.7360 C   0  0  2  0  0  0  0  0  0  0  0  0
   -2.0090   -1.9420  -16.8910 C   0  0  0  0  0  0  0  0  0  0  0  0
   -1.3600   -0.3940  -18.7790 C   0  0  0  0  0  0  0  0  0  0  0  0
   -4.2440   -2.8140  -17.6150 C   0  0  2  0  0  0  0  0  0  0  0  0
   -7.5110   -2.2450  -18.7720 C   0  0  0  0  0  0  0  0  0  0  0  0
  1 22  1  6
  1  4  1  0
  1 18  1  0
  2 22  2  0
  3 20  2  0
  4  8  1  0
  5  3  1  0
  5 16  2  0
  7  9  2  0
  7 13  1  0
  8 10  1  0
  9 19  1  0
 10 12  2  0
 13 14  1  6
 13 21  1  0
 14  1  1  0
 15  4  2  0
 16  7  1  0
 18  6  1  6
 18 10  1  0
 19 11  1  0
 20 17  1  0
 20  9  1  0
 21  6  1  1
 21 11  1  0
M  END
$$$$

     RDKit          3D

 18 19  0  0  0  0  0  0  0  0999 V2000
   -0.3840   -1.3860  -19.1110 O   0  0  0  0  0  0  0  0  0  0  0  0
   -7.6380   -2.0590  -18.0980 C   0  0  0  0  0  0  0  0  0  0  0  0
   -7.1900   -4.5960  -15.1940 O   0  0  0  0  0  0  0  0  0  0  0  0
   -9.1470   -3.6730  -16.3390 O   0  0  0  0  0  0  0  0  0  0  0  0
   -0.7550   -2.7180  -17.1810 C   0  0  0  0  0  0  0  0  0  0  0  0
   -8.0420   -2.4650  -14.6160 O   0  0  0  0  0  0  0  0  0  0  0  0
   -7.9680   -3.3600  -15.7650 S   0  0  1  0  0  0  0  0  0  0  0  0
   -7.1740   -0.9250  -20.2880 N   0  0  0  0  0  0  0  0  0  0  0  0
   -3.4850   -2.3300  -17.5430 C   0  0  0  0  0  0  0  0  0  0  0  0
   -1.6660   -3.2390  -16.3110 C   0  0  0  0  0  0  0  0  0  0  0  0
   -5.7270   -2.6900  -16.7890 C   0  0  0  0  0  0  0  0  0  0  0  0
   -6.6940   -1.5030  -19.1060 C   0  0  0  0  0  0  0  0  0  0  0  0
   -7.1060   -2.6770  -16.9760 C   0  0  0  0  0  0  0  0  0  0  0  0
   -4.8690   -2.1420  -17.7380 C   0  0  0  0  0  0  0  0  0  0  0  0
   -1.1740   -2.2190  -18.4390 C   0  0  0  0  0  0  0  0  0  0  0  0
   -5.3210   -1.5940  -18.8820 N   0  0  0  0  0  0  0  0  0  0  0  0
   -2.5670   -1.8370  -18.4650 C   0  0  0  0  0  0  0  0  0  0  0  0
   -3.0300   -3.0320  -16.4590 C   0  0  0  0  0  0  0  0  0  0  0  0
  1 15  1  0
  2 13  2  0
  7  4  1  6
  5 10  2  0
  7  3  1  0
  7  6  1  0
  8 12  1  0
  9 18  2  0
 12 16  2  0
 12  2  1  0
 13 11  1  0
 13  7  1  0
 14  9  1  0
 14 11  2  0
 15  5  1  0
 16 14  1  0
 17 15  2  0
 17  9  1  0
 18 10  1  0
M  END
$$$$

     RDKit          3D

 23 26  0  0  0  0  0  0  0  0999 V2000
   -6.1850   -2.7490  -19.1860 O   0  0  0  0  0  0  0  0  0  0  0  0
   -7.0350   -3.3700  -14.7100 O   0  0  0  0  0  0  0  0  0  0  0  0
    1.5890   -1.9030  -20.1300 N   0  0  0  0  0  0  0  0  0  0  0  0
   -5.1370   -2.9010  -15.9180 N   0  0  0  0  0  0  0  0  0  0  0  0
   -9.3190   -1.9610  -17.7870 N   0  0  0  0  0  0  0  0  0  0  0  0
   -6.0960   -2.4670  -17.8730 C   0  0  2  0  0  0  0  0  0  0  0  0
   -4.9380   -1.9660  -17.1450 C   0  0  2  0  0  0  0  0  0  0  0  0
   -3.6200   -1.8350  -17.7570 C   0  0  2  0  0  0  0  0  0  0  0  0
   -7.1570   -2.7270  -17.0350 C   0  0  2  0  0  0  0  0  0  0  0  0
    0.7350   -2.2240  -19.2680 C   0  0  2  0  0  0  0  0  0  0  0  0
   -0.6640   -3.0590  -17.4770 N   0  0  0  0  0  0  0  0  0  0  0  0
   -6.4480   -3.0140  -15.7490 C   0  0  0  0  0  0  0  0  0  0  0  0
   -8.3710   -0.9700  -18.3040 C   0  0  0  0  0  0  0  0  0  0  0  0
   -0.9490   -2.2580  -19.5700 C   0  0  0  0  0  0  0  0  0  0  0  0
   -2.7810   -2.1510  -16.0060 C   0  0  0  0  0  0  0  0  0  0  0  0
   -0.5450   -1.3990  -17.1190 C   0  0  1  0  0  0  0  0  0  0  0  0
    0.1120   -0.7690  -18.3430 C   0  0  0  0  0  0  0  0  0  0  0  0
   -2.9520   -2.8230  -18.2330 C   0  0  0  0  0  0  0  0  0  0  0  0
   -8.6140   -2.9110  -17.0980 C   0  0  0  0  0  0  0  0  0  0  0  0
   -1.6170   -3.4680  -18.2060 C   0  0  2  0  0  0  0  0  0  0  0  0
    0.7280   -3.1740  -18.1170 C   0  0  0  0  0  0  0  0  0  0  0  0
   -2.0960   -1.2120  -16.8710 C   0  0  1  0  0  0  0  0  0  0  0  0
   -9.1940   -3.9700  -16.6670 N   0  0  0  0  0  0  0  0  0  0  0  0
  4 12  1  0
  5 19  1  0
  6  1  1  1
  6  7  1  0
  6  9  1  0
  7  4  1  1
  8 18  1  1
  8  7  1  0
  8 22  1  0
  9 19  1  6
  9 12  1  0
 10  3  1  6
 10 17  1  0
 10 21  1  0
 11 21  1  0
 11 16  1  0
 12  2  2  0
 13  5  1  0
 14 10  1  0
 16 17  1  6
 16 22  1  0
 20 18  1  1
 19 23  2  0
 20 14  1  0
 20 11  1  0
 22 15  1  1
M  END
$$$$

     RDKit          3D

 21 23  0  0  0  0  0  0  0  0999 V2000
   -8.0220   -0.8680  -18.7830 C   0  0  0  0  0  0  0  0  0  0  0  0
   -8.8120   -2.7830  -17.4470 C   0  0  0  0  0  0  0  0  0  0  0  0
   -5.3700   -1.6150  -19.7880 C   0  0  0  0  0  0  0  0  0  0  0  0
   -2.6120   -0.1740  -19.1940 O   0  0  0  0  0  0  0  0  0  0  0  0
   -2.4960   -2.7170  -18.3160 O   0  0  0  0  0  0  0  0  0  0  0  0
   -5.2080   -1.7170  -17.3710 N   0  0  0  0  0  0  0  0  0  0  0  0
   -2.8770   -1.6680  -17.3890 C   0  0  1  0  0  0  0  0  0  0  0  0
   -7.6800   -3.6560  -15.6080 C   0  0  0  0  0  0  0  0  0  0  0  0
   -3.4550   -0.5090  -18.1120 C   0  0  2  0  0  0  0  0  0  0  0  0
   -4.8830   -0.9070  -18.5390 C   0  0  1  0  0  0  0  0  0  0  0  0
  -10.0400   -2.7190  -18.2110 O   0  0  0  0  0  0  0  0  0  0  0  0
   -1.2730   -0.8200  -19.1200 C   0  0  2  0  0  0  0  0  0  0  0  0
   -7.5760   -4.3430  -14.5720 O   0  0  0  0  0  0  0  0  0  0  0  0
   -6.5170   -2.9970  -16.0020 N   0  0  0  0  0  0  0  0  0  0  0  0
   -0.4930   -1.0030  -21.4550 O   0  0  0  0  0  0  0  0  0  0  0  0
   -0.3410   -0.2160  -20.2050 C   0  0  0  0  0  0  0  0  0  0  0  0
   -7.7260   -1.9990  -17.8090 C   0  0  2  0  0  0  0  0  0  0  0  0
   -6.5190   -2.1960  -17.0940 C   0  0  0  0  0  0  0  0  0  0  0  0
   -4.0130   -2.2520  -16.7480 O   0  0  0  0  0  0  0  0  0  0  0  0
   -8.8420   -3.6050  -16.3820 C   0  0  0  0  0  0  0  0  0  0  0  0
   -1.6310   -2.3390  -19.3770 C   0  0  0  0  0  0  0  0  0  0  0  0
  2 20  2  0
  4 12  1  0
  6 18  1  0
  6 19  1  0
  7  5  1  6
  7 19  1  0
  8 13  2  0
  9  4  1  6
  9  7  1  0
 10  3  1  6
 10  9  1  0
 10  6  1  0
 11  2  1  0
 12 16  1  6
 14  8  1  0
 15 16  1  0
 17  1  1  1
 17  2  1  0
 17 18  1  0
 18 14  2  0
 20  8  1  0
 21 12  1  0
 21  5  1  0
M  END
$$$$

     RDKit          3D

 20 21  0  0  0  0  0  0  0  0999 V2000
    0.4740   -0.8300  -17.3400 C   0  0  0  0  0  0  0  0  0  0  0  0
   -3.5750   -0.5160  -19.5050 C   0  0  0  0  0  0  0  0  0  0  0  0
   -6.3940   -1.2920  -19.6130 N   0  0  0  0  0  0  0  0  0  0  0  0
   -2.3820   -0.4860  -18.9410 C   0  0  0  0  0  0  0  0  0  0  0  0
   -4.3240   -1.2540  -18.6250 C   0  0  0  0  0  0  0  0  0  0  0  0
   -7.3030   -3.7580  -15.0680 O   0  0  0  0  0  0  0  0  0  0  0  0
   -8.9460   -4.1280  -16.4080 O   0  0  0  0  0  0  0  0  0  0  0  0
   -4.0060   -2.5560  -16.6710 C   0  0  0  0  0  0  0  0  0  0  0  0
   -7.4620   -2.3220  -16.9650 C   0  0  1  0  0  0  0  0  0  0  0  0
   -6.0990   -2.1370  -17.3250 C   0  0  0  0  0  0  0  0  0  0  0  0
   -1.2390   -2.0610  -16.9230 C   0  0  0  0  0  0  0  0  0  0  0  0
    1.7840   -2.0740  -19.3300 C   0  0  0  0  0  0  0  0  0  0  0  0
   -5.2620   -2.7030  -16.4580 N   0  0  0  0  0  0  0  0  0  0  0  0
   -3.5030   -1.7340  -17.7040 C   0  0  0  0  0  0  0  0  0  0  0  0
   -8.5350   -1.4660  -17.3890 C   0  0  0  0  0  0  0  0  0  0  0  0
   -2.2190   -1.3470  -17.9310 N   0  0  0  0  0  0  0  0  0  0  0  0
   -7.9470   -3.5360  -16.1490 C   0  0  0  0  0  0  0  0  0  0  0  0
   -5.6500   -1.5870  -18.5730 C   0  0  0  0  0  0  0  0  0  0  0  0
    0.7450   -0.5860  -18.8340 N   0  0  0  0  0  0  0  0  0  0  0  0
   -0.1380   -2.0570  -17.4600 O   0  0  0  0  0  0  0  0  0  0  0  0
  2  4  1  0
  2  5  1  0
  3 18  1  0
  4 16  1  0
  5 18  1  0
  5 14  2  0
  7 17  2  0
  8 13  2  0
  9 15  1  6
  9 17  1  0
 10  9  1  0
 10 13  1  0
 12 19  1  0
 14  8  1  0
 16 14  1  0
 16 11  1  0
 17  6  1  0
 18 10  2  0
 19  1  1  0
 20  1  1  0
 20 11  1  0
M  END
$$$$

     RDKit          3D

 18 19  0  0  0  0  0  0  0  0999 V2000
   -1.0000   -0.1170  -18.8390 C   0  0  0  0  0  0  0  0  0  0  0  0
   -5.8190   -2.4470  -17.2280 C   0  0  0  0  0  0  0  0  0  0  0  0
   -4.7870   -1.6420  -19.3520 C   0  0  0  0  0  0  0  0  0  0  0  0
   -7.8920   -2.8520  -15.7000 N   0  0  0  0  0  0  0  0  0  0  0  0
   -1.9640   -2.9400  -17.3310 C   0  0  0  0  0  0  0  0  0  0  0  0
  -10.0990   -2.4950  -17.5640 O   0  0  0  0  0  0  0  0  0  0  0  0
   -6.9800   -1.8640  -17.7690 C   0  0  0  0  0  0  0  0  0  0  0  0
   -4.5380   -2.1660  -17.9360 C   0  0  1  0  0  0  0  0  0  0  0  0
   -9.5570   -0.2730  -17.5110 C   0  0  0  0  0  0  0  0  0  0  0  0
   -9.2890   -1.7450  -17.2640 C   0  0  0  0  0  0  0  0  0  0  0  0
   -1.5910   -0.7020  -20.9260 O   0  0  0  0  0  0  0  0  0  0  0  0
   -6.7670   -3.3930  -15.3190 N   0  0  0  0  0  0  0  0  0  0  0  0
   -2.5180   -1.5900  -17.9150 C   0  0  1  0  0  0  0  0  0  0  0  0
   -2.2290   -1.0370  -19.4450 C   0  0  1  0  0  0  0  0  0  0  0  0
   -8.0470   -2.1850  -16.8680 C   0  0  0  0  0  0  0  0  0  0  0  0
   -3.7440   -1.2820  -17.3490 N   0  0  0  0  0  0  0  0  0  0  0  0
   -5.7120   -3.1550  -16.0220 C   0  0  0  0  0  0  0  0  0  0  0  0
   -3.6800   -0.7070  -19.7200 C   0  0  0  0  0  0  0  0  0  0  0  0
  2 17  2  0
  3  8  1  0
  4 12  2  0
  6 10  2  0
  7  2  1  0
  7 15  2  0
  8 16  1  0
  8  2  1  1
  9 10  1  0
 10 15  1  0
 11 14  1  0
 13 16  1  0
 13  5  1  6
 14  1  1  1
 14 13  1  0
 15  4  1  0
 17 12  1  0
 18 14  1  0
 18  3  1  0
M  END
$$$$

     RDKit          3D

 22 23  0  0  0  0  0  0  0  0999 V2000
   -3.1920   -0.6090  -18.7190 C   0  0  2  0  0  0  0  0  0  0  0  0
   -6.1150   -0.9400  -18.7370 O   0  0  0  0  0  0  0  0  0  0  0  0
   -8.3650   -4.3500  -15.2730 O   0  0  0  0  0  0  0  0  0  0  0  0
   -9.7360   -3.0500  -17.4410 C   0  0  0  0  0  0  0  0  0  0  0  0
   -7.4050   -2.3360  -16.5230 C   0  0  1  0  0  0  0  0  0  0  0  0
   -8.3510   -2.3780  -17.7560 C   0  0  1  0  0  0  0  0  0  0  0  0
    0.0770   -0.7640  -16.9390 C   0  0  2  0  0  0  0  0  0  0  0  0
   -3.9820   -1.4550  -17.9540 C   0  0  1  0  0  0  0  0  0  0  0  0
   -5.5290   -1.3590  -17.8460 C   0  0  0  0  0  0  0  0  0  0  0  0
   -3.1430   -0.7440  -20.1850 C   0  0  0  0  0  0  0  0  0  0  0  0
    0.3960    0.4460  -17.6980 C   0  0  0  0  0  0  0  0  0  0  0  0
   -7.7750   -3.2250  -18.7530 O   0  0  0  0  0  0  0  0  0  0  0  0
   -3.4200   -2.4720  -17.2970 C   0  0  0  0  0  0  0  0  0  0  0  0
   -1.9370   -0.2960  -18.1620 C   0  0  2  0  0  0  0  0  0  0  0  0
   -0.9420    0.7140  -18.8240 C   0  0  0  0  0  0  0  0  0  0  0  0
   -7.3630   -3.5870  -15.6970 C   0  0  0  0  0  0  0  0  0  0  0  0
   -8.6010   -1.0120  -18.0610 O   0  0  0  0  0  0  0  0  0  0  0  0
   -6.1050   -3.8740  -15.3390 O   0  0  0  0  0  0  0  0  0  0  0  0
   -1.4040   -1.1520  -17.1990 C   0  0  0  0  0  0  0  0  0  0  0  0
   -5.9750   -1.9940  -16.7100 N   0  0  0  0  0  0  0  0  0  0  0  0
   -2.0760   -2.2090  -16.8330 C   0  0  0  0  0  0  0  0  0  0  0  0
    0.5260   -0.1900  -15.5880 N   0  0  0  0  0  0  0  0  0  0  0  0
  1 10  1  6
  1 14  1  0
  1  8  1  0
  2  9  2  0
  5 20  1  6
  5 16  1  0
  6  4  1  1
  6  5  1  0
  7 22  1  1
  8  9  1  6
  8 13  1  0
  9 20  1  0
 11  7  1  0
 12  6  1  0
 13 21  1  0
 14 15  1  6
 14 19  1  0
 15 11  1  0
 16 18  2  0
 16  3  1  0
 17  6  1  0
 19  7  1  0
 19 21  2  0
M  END
$$$$

     RDKit          3D

 15 18  0  0  0  0  0  0  0  0999 V2000
   -3.3400    0.2120  -19.8950 O   0  0  0  0  0  0  0  0  0  0  0  0
   -5.5370   -3.0050  -15.8390 S   0  0  0  0  0  0  0  0  0  0  0  0
   -5.1040   -1.7920  -18.2600 C   0  0  1  0  0  0  0  0  0  0  0  0
   -4.2790   -2.7440  -16.4810 C   0  0  0  0  0  0  0  0  0  0  0  0
   -6.5780   -1.2320  -19.4770 C   0  0  0  0  0  0  0  0  0  0  0  0
   -5.0520   -2.2510  -17.1570 C   0  0  2  0  0  0  0  0  0  0  0  0
   -1.9560   -3.0120  -16.6030 C   0  0  0  0  0  0  0  0  0  0  0  0
   -5.0220   -0.0690  -21.2640 O   0  0  0  0  0  0  0  0  0  0  0  0
   -6.3040   -2.1730  -17.5810 C   0  0  1  0  0  0  0  0  0  0  0  0
   -2.9420   -2.5160  -17.0750 C   0  0  0  0  0  0  0  0  0  0  0  0
   -4.4040   -0.3550  -20.1870 C   0  0  0  0  0  0  0  0  0  0  0  0
   -2.8320   -1.6710  -18.1210 C   0  0  0  0  0  0  0  0  0  0  0  0
   -4.1530   -1.1770  -18.1570 C   0  0  1  0  0  0  0  0  0  0  0  0
   -5.1500   -1.3840  -19.2770 C   0  0  2  0  0  0  0  0  0  0  0  0
   -7.3820   -1.6870  -18.6440 C   0  0  0  0  0  0  0  0  0  0  0  0
  3 13  1  1
  3  9  1  0
  3  6  1  0
  4  2  2  0
  5 14  1  0
  5 15  2  0
  6  4  1  6
  8 11  2  0
  9  6  1  0
 10  7  2  0
 10  4  1  0
 11  1  1  0
 14 11  1  1
 12 10  1  0
 13 12  1  6
 14  3  1  0
 14 13  1  0
  9 15  1  1
M  END
$$$$

     RDKit          3D

 19 20  0  0  0  0  0  0  0  0999 V2000
   -3.1580   -2.2560  -17.0880 C   0  0  2  0  0  0  0  0  0  0  0  0
   -4.4210   -1.5160  -17.8350 N   0  0  0  0  0  0  0  0  0  0  0  0
   -9.0150   -3.0260  -17.0990 C   0  0  0  0  0  0  0  0  0  0  0  0
   -1.7690   -1.2410  -18.6410 C   0  0  1  0  0  0  0  0  0  0  0  0
   -4.0230   -0.9020  -18.9710 C   0  0  0  0  0  0  0  0  0  0  0  0
   -3.0950   -2.1470  -15.7350 O   0  0  0  0  0  0  0  0  0  0  0  0
   -7.7150   -2.7080  -16.8750 C   0  0  0  0  0  0  0  0  0  0  0  0
   -5.6680   -2.8460  -16.0340 C   0  0  0  0  0  0  0  0  0  0  0  0
   -2.0060    0.0050  -16.7510 C   0  0  0  0  0  0  0  0  0  0  0  0
   -9.4010   -4.2320  -16.9760 O   0  0  0  0  0  0  0  0  0  0  0  0
   -0.8330    0.2560  -15.9450 O   0  0  0  0  0  0  0  0  0  0  0  0
   -2.0410   -1.2220  -17.2340 C   0  0  1  0  0  0  0  0  0  0  0  0
   -2.7750   -1.5200  -19.3800 O   0  0  0  0  0  0  0  0  0  0  0  0
   -6.9470   -1.7660  -17.7550 S   0  0  0  0  0  0  0  0  0  0  0  0
   -6.9630   -3.2200  -15.8610 C   0  0  1  0  0  0  0  0  0  0  0  0
   -1.1230   -0.1390  -19.0500 O   0  0  0  0  0  0  0  0  0  0  0  0
   -7.5570   -3.8720  -14.7540 O   0  0  0  0  0  0  0  0  0  0  0  0
   -9.6930   -2.1200  -17.5490 O   0  0  0  0  0  0  0  0  0  0  0  0
   -5.5530   -2.1010  -17.2140 C   0  0  1  0  0  0  0  0  0  0  0  0
  1  6  1  1
  2  5  1  0
 19  2  1  1
  2  1  1  0
  3 10  1  0
  4 16  1  6
  4 12  1  0
  7  3  1  0
  7 15  1  0
  8 15  1  0
  9 11  1  0
 12  1  1  0
 12  9  1  6
 13  5  1  0
 13  4  1  0
 14 19  1  0
 14  7  1  0
 15 17  1  1
 18  3  2  0
 19  8  1  0
M  END
$$$$

     RDKit          3D

 15 16  0  0  0  0  0  0  0  0999 V2000
   -3.5480   -2.4040  -15.7480 C   0  0  0  0  0  0  0  0  0  0  0  0
   -7.0130   -2.4540  -17.1940 C   0  0  2  0  0  0  0  0  0  0  0  0
   -4.3110   -2.0290  -16.8600 C   0  0  0  0  0  0  0  0  0  0  0  0
   -2.6630   -0.3190  -17.7950 N   0  0  0  0  0  0  0  0  0  0  0  0
   -8.4050   -3.5630  -15.6450 O   0  0  0  0  0  0  0  0  0  0  0  0
   -3.7630   -1.1890  -17.7850 C   0  0  0  0  0  0  0  0  0  0  0  0
   -7.9750   -2.2420  -18.1090 N   0  0  0  0  0  0  0  0  0  0  0  0
   -6.3570   -3.5880  -15.3050 O   0  0  0  0  0  0  0  0  0  0  0  0
   -5.5780   -2.4750  -17.5270 C   0  0  0  0  0  0  0  0  0  0  0  0
   -2.7890    0.1270  -19.0370 C   0  0  0  0  0  0  0  0  0  0  0  0
   -3.9370   -0.5130  -19.9100 S   0  0  0  0  0  0  0  0  0  0  0  0
   -5.5780   -1.9590  -18.8600 O   0  0  0  0  0  0  0  0  0  0  0  0
   -7.2700   -3.1610  -15.9190 C   0  0  0  0  0  0  0  0  0  0  0  0
   -4.5010   -1.2320  -18.9500 C   0  0  0  0  0  0  0  0  0  0  0  0
   -2.0760    1.1310  -19.4290 N   0  0  0  0  0  0  0  0  0  0  0  0
  2  7  1  6
  2 13  1  0
  3  1  1  0
  4  6  1  0
  6  3  1  0
  9  2  1  0
  9  3  2  0
 10  4  2  0
 11 10  1  0
 11 14  1  0
 12  9  1  0
 13  5  2  0
 13  8  1  0
 14 12  1  0
 14  6  2  0
 15 10  1  0
M  END
$$$$

     RDKit          3D

 20 22  0  0  0  0  0  0  0  0999 V2000
   -2.9220   -3.1700  -17.2200 C   0  0  0  0  0  0  0  0  0  0  0  0
   -6.1360   -1.8940  -18.5800 C   0  0  0  0  0  0  0  0  0  0  0  0
   -1.6630   -1.4950  -19.1440 C   0  0  0  0  0  0  0  0  0  0  0  0
   -7.4490   -1.8430  -18.3390 N   0  0  0  0  0  0  0  0  0  0  0  0
   -2.9770   -2.7180  -14.7340 O   0  0  0  0  0  0  0  0  0  0  0  0
   -1.7380   -2.7590  -16.7720 C   0  0  2  0  0  0  0  0  0  0  0  0
   -1.9110   -1.4390  -17.6440 C   0  0  1  0  0  0  0  0  0  0  0  0
   -7.9420   -2.1760  -17.1460 C   0  0  0  0  0  0  0  0  0  0  0  0
   -0.5680   -3.1370  -17.5930 C   0  0  0  0  0  0  0  0  0  0  0  0
   -1.1100   -1.3720  -15.1020 O   0  0  0  0  0  0  0  0  0  0  0  0
   -7.0640   -2.6490  -16.1100 C   0  0  0  0  0  0  0  0  0  0  0  0
   -1.9870   -2.2600  -15.4870 C   0  0  0  0  0  0  0  0  0  0  0  0
   -9.8210   -2.2250  -15.9840 O   0  0  0  0  0  0  0  0  0  0  0  0
   -9.7750   -1.5540  -17.8560 O   0  0  0  0  0  0  0  0  0  0  0  0
   -0.4590   -1.8450  -18.3750 C   0  0  1  0  0  0  0  0  0  0  0  0
   -9.2270   -1.9520  -16.9810 C   0  0  0  0  0  0  0  0  0  0  0  0
   -5.8550   -2.7150  -16.4070 C   0  0  0  0  0  0  0  0  0  0  0  0
   -5.2630   -2.3480  -17.6190 C   0  0  2  0  0  0  0  0  0  0  0  0
   -5.7980   -1.5390  -19.6300 O   0  0  0  0  0  0  0  0  0  0  0  0
   -3.9920   -2.3320  -17.8630 C   0  0  0  0  0  0  0  0  0  0  0  0
  2  4  1  0
  2 18  1  0
  4  8  2  0
  6  1  1  6
  6 12  1  0
  7  3  1  6
  7  6  1  0
  8 16  1  0
  8 11  1  0
  9  6  1  0
 12 10  2  0
 12  5  1  0
 14 16  2  0
 15  3  1  6
 15  7  1  0
 15  9  1  0
 16 13  1  0
 17 11  2  0
 18 20  1  1
 18 17  1  0
 19  2  2  0
 20  1  1  0
M  END
$$$$

     RDKit          3D

 19 19  0  0  0  0  0  0  0  0999 V2000
   -1.4790   -1.2450  -17.6640 C   0  0  0  0  0  0  0  0  0  0  0  0
   -4.2200   -1.6540  -17.1820 C   0  0  0  0  0  0  0  0  0  0  0  0
   -6.5760   -2.2000  -17.2830 C   0  0  0  0  0  0  0  0  0  0  0  0
   -1.1610   -1.7920  -16.7230 O   0  0  0  0  0  0  0  0  0  0  0  0
   -2.4640   -0.8520  -20.0050 C   0  0  0  0  0  0  0  0  0  0  0  0
   -7.8320   -2.0410  -18.0810 C   0  0  0  0  0  0  0  0  0  0  0  0
   -3.0720   -1.3410  -17.7440 C   0  0  0  0  0  0  0  0  0  0  0  0
   -7.7760   -3.6370  -15.7840 C   0  0  0  0  0  0  0  0  0  0  0  0
   -7.8040   -4.4730  -14.5960 O   0  0  0  0  0  0  0  0  0  0  0  0
   -0.8760   -1.0210  -19.0550 C   0  0  2  0  0  0  0  0  0  0  0  0
   -0.5380   -2.3930  -19.2060 O   0  0  0  0  0  0  0  0  0  0  0  0
   -6.6350   -2.9910  -16.1100 C   0  0  0  0  0  0  0  0  0  0  0  0
   -3.5590   -1.1050  -19.0370 C   0  0  0  0  0  0  0  0  0  0  0  0
   -8.9880   -2.7020  -17.7010 C   0  0  0  0  0  0  0  0  0  0  0  0
   -4.8810   -1.2350  -18.9330 N   0  0  0  0  0  0  0  0  0  0  0  0
   -0.1460   -0.5000  -20.3450 C   0  0  0  0  0  0  0  0  0  0  0  0
   -3.4700   -1.8320  -16.5950 N   0  0  0  0  0  0  0  0  0  0  0  0
   -8.9080   -3.4980  -16.5200 C   0  0  0  0  0  0  0  0  0  0  0  0
   -5.3420   -1.6570  -17.7100 C   0  0  0  0  0  0  0  0  0  0  0  0
  1  4  2  0
  2 17  1  0
  3 12  2  0
  5 10  1  0
  5 13  1  0
  6 14  2  0
  6  3  1  0
  7 17  1  0
  8  9  1  0
 10 16  1  1
 10  1  1  0
 11 10  1  0
 12  8  1  0
 13 15  1  0
 14 18  1  0
 15 19  2  3
 18  8  2  0
 19  3  1  0
 19  2  1  0
M  END
$$$$

     RDKit          3D

 19 20  0  0  0  0  0  0  0  0999 V2000
    0.1470   -1.7150  -19.9130 C   0  0  0  0  0  0  0  0  0  0  0  0
   -3.8430   -1.7920  -16.7240 C   0  0  0  0  0  0  0  0  0  0  0  0
    0.5720   -1.0130  -18.6670 N   0  0  0  0  0  0  0  0  0  0  0  0
   -6.9470   -1.0520  -19.6090 C   0  0  0  0  0  0  0  0  0  0  0  0
   -1.8240   -1.1960  -18.1200 C   0  0  1  0  0  0  0  0  0  0  0  0
   -7.1510   -0.4830  -20.5220 O   0  0  0  0  0  0  0  0  0  0  0  0
   -5.9630   -1.8510  -17.6600 C   0  0  1  0  0  0  0  0  0  0  0  0
   -7.6290   -2.9560  -16.1940 C   0  0  0  0  0  0  0  0  0  0  0  0
   -2.8570   -0.8340  -19.1470 C   0  0  0  0  0  0  0  0  0  0  0  0
   -8.9420   -4.4400  -16.1380 O   0  0  0  0  0  0  0  0  0  0  0  0
   -6.2730   -2.7740  -16.5700 C   0  0  0  0  0  0  0  0  0  0  0  0
   -4.6050   -1.5720  -17.7550 C   0  0  0  0  0  0  0  0  0  0  0  0
   -0.2980   -0.7550  -17.7540 C   0  0  0  0  0  0  0  0  0  0  0  0
   -8.6530   -2.4960  -16.9560 C   0  0  0  0  0  0  0  0  0  0  0  0
   -7.8990   -4.1410  -15.3510 C   0  0  0  0  0  0  0  0  0  0  0  0
   -4.2050   -0.9950  -18.8890 O   0  0  0  0  0  0  0  0  0  0  0  0
   -2.3830   -1.1840  -16.7330 C   0  0  0  0  0  0  0  0  0  0  0  0
   -7.0710   -1.4960  -18.4720 C   0  0  0  0  0  0  0  0  0  0  0  0
   -8.4540   -1.6300  -18.0680 C   0  0  0  0  0  0  0  0  0  0  0  0
  1  3  1  0
  3 13  1  0
  4 18  2  0
  5 13  1  1
  5 17  1  0
  6  4  2  0
  7 12  1  6
  7 11  1  0
  8 15  1  0
  9 16  1  0
  9  5  1  0
 10 15  1  0
 11  8  1  0
 12  2  2  0
 14  8  2  0
 16 12  1  0
 17  2  1  0
 18 19  1  0
 18  7  1  0
 19 14  1  0
M  END
$$$$

     RDKit          3D

 21 22  0  0  0  0  0  0  0  0999 V2000
   -8.5310   -4.0290  -15.9300 O   0  0  0  0  0  0  0  0  0  0  0  0
   -2.9150   -0.9410  -17.2010 C   0  0  0  0  0  0  0  0  0  0  0  0
   -0.8650   -0.3520  -17.9490 C   0  0  0  0  0  0  0  0  0  0  0  0
   -5.5160   -1.4690  -18.0490 C   0  0  0  0  0  0  0  0  0  0  0  0
   -2.4890   -3.9960  -15.4860 O   0  0  0  0  0  0  0  0  0  0  0  0
   -4.6070   -0.9450  -18.8500 C   0  0  0  0  0  0  0  0  0  0  0  0
   -1.1710   -2.1220  -16.3030 C   0  0  0  0  0  0  0  0  0  0  0  0
   -7.3020   -2.0560  -17.1570 C   0  0  0  0  0  0  0  0  0  0  0  0
   -9.4310   -1.7660  -16.0430 O   0  0  0  0  0  0  0  0  0  0  0  0
   -1.4400    0.9990  -18.5780 C   0  0  0  0  0  0  0  0  0  0  0  0
   -7.2980   -1.0440  -19.3860 C   0  0  0  0  0  0  0  0  0  0  0  0
   -6.3240   -0.8540  -20.5360 C   0  0  0  0  0  0  0  0  0  0  0  0
   -3.4320   -0.4450  -18.4490 C   0  0  2  0  0  0  0  0  0  0  0  0
   -8.7930   -2.9570  -16.7000 S   0  0  2  0  0  0  0  0  0  0  0  0
   -2.5380    0.2180  -19.3910 C   0  0  0  0  0  0  0  0  0  0  0  0
   -6.8630   -1.8730  -18.3990 N   0  0  0  0  0  0  0  0  0  0  0  0
   -4.9360   -0.7710  -20.2230 C   0  0  0  0  0  0  0  0  0  0  0  0
   -2.1900   -3.3550  -16.5250 C   0  0  0  0  0  0  0  0  0  0  0  0
   -1.5380   -0.9380  -16.9130 N   0  0  0  0  0  0  0  0  0  0  0  0
   -2.6750   -3.6750  -17.7780 O   0  0  0  0  0  0  0  0  0  0  0  0
   -9.4770   -3.1900  -17.9250 O   0  0  0  0  0  0  0  0  0  0  0  0
  2 19  1  0
  3 19  1  0
  6  4  2  0
  8 14  1  0
 10  3  1  0
 11 16  1  0
 12 17  2  0
 12 11  1  0
 13  6  1  6
 13  2  1  0
 14  9  1  1
 14  1  1  0
 15 10  1  0
 15 13  1  0
 16  4  1  0
 16  8  1  0
 17  6  1  0
 18  7  1  0
 18  5  1  0
 19  7  1  0
 20 18  2  0
 21 14  1  0
M  END
$$$$

     RDKit          3D

 21 24  0  0  0  0  0  0  0  0999 V2000
   -2.3110    0.3210  -20.3760 C   0  0  0  0  0  0  0  0  0  0  0  0
   -3.3940   -1.1370  -18.7830 C   0  0  0  0  0  0  0  0  0  0  0  0
   -2.1710   -0.7210  -18.2870 C   0  0  0  0  0  0  0  0  0  0  0  0
   -8.3920   -0.7570  -18.1340 O   0  0  0  0  0  0  0  0  0  0  0  0
   -3.9190   -0.3780  -20.2910 S   0  0  0  0  0  0  0  0  0  0  0  0
   -9.5280   -4.7270  -17.7370 O   0  0  0  0  0  0  0  0  0  0  0  0
   -7.6130   -1.9850  -18.0760 C   0  0  2  0  0  0  0  0  0  0  0  0
   -7.6260   -3.0590  -19.1120 N   0  0  0  0  0  0  0  0  0  0  0  0
   -7.7950   -4.1000  -14.8840 C   0  0  0  0  0  0  0  0  0  0  0  0
   -4.2040   -2.0810  -18.1580 C   0  0  0  0  0  0  0  0  0  0  0  0
   -3.9080   -2.4950  -16.8550 C   0  0  0  0  0  0  0  0  0  0  0  0
   -9.3390   -3.9210  -16.8530 C   0  0  0  0  0  0  0  0  0  0  0  0
   -2.6710   -2.0140  -16.3100 C   0  0  0  0  0  0  0  0  0  0  0  0
   -9.5720   -2.4170  -15.9750 C   0  0  0  0  0  0  0  0  0  0  0  0
   -7.2030   -2.3960  -16.6610 C   0  0  0  0  0  0  0  0  0  0  0  0
   -8.2790   -3.2600  -16.0290 C   0  0  1  0  0  0  0  0  0  0  0  0
   -1.8810   -1.1120  -16.9700 C   0  0  0  0  0  0  0  0  0  0  0  0
   -1.3560    0.1110  -19.2470 C   0  0  0  0  0  0  0  0  0  0  0  0
   -2.2430   -2.5350  -14.6960 Cl  0  0  0  0  0  0  0  0  0  0  0  0
   -5.2950   -2.5170  -18.9270 O   0  0  0  0  0  0  0  0  0  0  0  0
   -6.5650   -2.0710  -19.1780 C   0  0  2  0  0  0  0  0  0  0  0  0
  1  5  1  0
  1 18  2  0
  2  3  2  0
  2 10  1  0
  3 17  1  0
  5  2  1  0
  6 12  2  0
  7  4  1  1
  7 15  1  0
  8  7  1  0
 10 11  2  0
 11 13  1  0
 12 16  1  0
 12 14  1  0
 13 19  1  0
 15 16  1  0
 16 14  1  0
 16  9  1  1
 17 13  2  0
 18  3  1  0
 20 10  1  0
 21  8  1  0
 21 20  1  1
 21  7  1  0
M  END
$$$$

     RDKit          3D

 20 20  0  0  0  0  0  0  0  0999 V2000
   -0.0080   -0.4480  -19.7690 C   0  0  0  0  0  0  0  0  0  0  0  0
   -1.2470   -0.1170  -17.8350 C   0  0  0  0  0  0  0  0  0  0  0  0
   -1.8040   -3.2270  -17.8200 O   0  0  0  0  0  0  0  0  0  0  0  0
   -8.7860   -1.6170  -17.3530 C   0  0  0  0  0  0  0  0  0  0  0  0
   -0.7480   -1.3610  -17.3200 C   0  0  0  0  0  0  0  0  0  0  0  0
   -3.5070   -2.1160  -16.9190 C   0  0  1  0  0  0  0  0  0  0  0  0
   -7.1480   -3.8650  -15.0030 O   0  0  0  0  0  0  0  0  0  0  0  0
   -7.5670   -2.3610  -16.7670 C   0  0  1  0  0  0  0  0  0  0  0  0
   -8.9500   -4.2240  -16.2600 O   0  0  0  0  0  0  0  0  0  0  0  0
   -2.1620   -0.1930  -18.9160 N   0  0  0  0  0  0  0  0  0  0  0  0
   -7.8950   -3.5400  -15.9140 C   0  0  0  0  0  0  0  0  0  0  0  0
   -4.0330   -3.2380  -16.1660 O   0  0  0  0  0  0  0  0  0  0  0  0
   -6.0750   -1.1280  -19.2810 O   0  0  0  0  0  0  0  0  0  0  0  0
   -3.5100   -0.7540  -18.9850 C   0  0  0  0  0  0  0  0  0  0  0  0
   -4.0080   -0.5040  -20.0210 O   0  0  0  0  0  0  0  0  0  0  0  0
   -6.2380   -2.5720  -17.5480 N   0  0  0  0  0  0  0  0  0  0  0  0
   -2.0310   -2.1700  -16.9550 C   0  0  1  0  0  0  0  0  0  0  0  0
   -4.2180   -1.5060  -18.1800 C   0  0  2  0  0  0  0  0  0  0  0  0
   -5.5690   -1.6710  -18.3010 C   0  0  0  0  0  0  0  0  0  0  0  0
   -1.3440   -0.8990  -20.1260 C   0  0  0  0  0  0  0  0  0  0  0  0
  2  5  1  0
  5 17  1  0
  6 12  1  6
  8  4  1  6
  8 11  1  0
  9 11  2  0
 10  2  1  0
 11  7  1  0
 13 19  2  0
 14 10  1  0
 14 18  1  0
 15 14  2  0
 16  8  1  0
 17  3  1  6
 17  6  1  0
 18 19  1  1
 18  6  1  0
 19 16  1  0
 20  1  1  0
 20 10  1  0
M  END
$$$$

     RDKit          3D

 21 24  0  0  0  0  0  0  0  0999 V2000
   -5.5890   -3.3960  -15.4020 O   0  0  0  0  0  0  0  0  0  0  0  0
    0.4110   -1.2210  -18.2680 C   0  0  0  0  0  0  0  0  0  0  0  0
   -2.0080   -0.7060  -18.1440 C   0  0  1  0  0  0  0  0  0  0  0  0
   -1.0920   -0.9060  -19.2350 C   0  0  0  0  0  0  0  0  0  0  0  0
   -2.2990   -3.6060  -15.9120 O   0  0  0  0  0  0  0  0  0  0  0  0
   -2.4590   -2.7970  -16.8020 C   0  0  0  0  0  0  0  0  0  0  0  0
   -4.0580   -0.6770  -18.9160 O   0  0  0  0  0  0  0  0  0  0  0  0
   -5.4120   -1.3410  -18.8400 C   0  0  0  0  0  0  0  0  0  0  0  0
   -6.6720   -2.3650  -17.2520 C   0  0  2  0  0  0  0  0  0  0  0  0
   -8.9290   -3.0530  -16.1980 N   0  0  0  0  0  0  0  0  0  0  0  0
   -7.8030   -1.9910  -17.7820 C   0  0  0  0  0  0  0  0  0  0  0  0
   -4.2880   -2.6160  -17.7570 O   0  0  0  0  0  0  0  0  0  0  0  0
   -3.4670   -0.7280  -17.6890 C   0  0  1  0  0  0  0  0  0  0  0  0
   -3.7700   -2.0050  -16.8990 C   0  0  2  0  0  0  0  0  0  0  0  0
   -8.9550   -2.4440  -17.2570 C   0  0  0  0  0  0  0  0  0  0  0  0
   -7.8380   -3.3920  -15.5670 C   0  0  0  0  0  0  0  0  0  0  0  0
   -1.5160   -2.1370  -17.6780 N   0  0  0  0  0  0  0  0  0  0  0  0
   -5.6460   -2.3310  -18.0250 C   0  0  2  0  0  0  0  0  0  0  0  0
   -0.1280   -2.1030  -17.1830 C   0  0  0  0  0  0  0  0  0  0  0  0
  -10.0460   -2.1480  -17.8140 O   0  0  0  0  0  0  0  0  0  0  0  0
   -6.6280   -3.0260  -16.0910 C   0  0  0  0  0  0  0  0  0  0  0  0
  2 19  1  0
  3  4  1  6
  3 13  1  0
  3 17  1  0
  4  2  1  0
  6  5  2  0
  7  8  1  0
  9 11  1  6
  9 21  1  0
 10 16  1  0
 11 15  1  0
 13  7  1  6
 13 14  1  0
 14 12  1  6
 14  6  1  0
 15 10  1  0
 17 19  1  0
 17  6  1  0
 18  8  1  1
 18 12  1  0
 18  9  1  0
 20 15  2  0
 21 16  2  0
 21  1  1  0
M  END
$$$$

     RDKit          3D

 20 22  0  0  0  0  0  0  0  0999 V2000
   -3.6370   -0.6010  -19.2920 C   0  0  0  0  0  0  0  0  0  0  0  0
   -4.3960   -1.7770  -17.9000 C   0  0  0  0  0  0  0  0  0  0  0  0
   -2.5100   -0.1820  -19.7950 C   0  0  0  0  0  0  0  0  0  0  0  0
   -2.2130   -2.5190  -16.4140 C   0  0  0  0  0  0  0  0  0  0  0  0
   -1.2860    0.6540  -18.5880 S   0  0  0  0  0  0  0  0  0  0  0  0
   -6.9520   -2.7900  -19.5580 O   0  0  0  0  0  0  0  0  0  0  0  0
   -5.9330   -2.7610  -16.4970 C   0  0  1  0  0  0  0  0  0  0  0  0
   -3.2380   -1.1800  -18.0620 C   0  0  0  0  0  0  0  0  0  0  0  0
   -7.0080   -2.3540  -17.1650 C   0  0  2  0  0  0  0  0  0  0  0  0
   -8.3420   -2.9460  -16.7780 C   0  0  0  0  0  0  0  0  0  0  0  0
   -7.8650   -0.8110  -18.6850 O   0  0  0  0  0  0  0  0  0  0  0  0
   -0.8020   -0.8480  -17.6770 C   0  0  0  0  0  0  0  0  0  0  0  0
   -2.2600   -1.3530  -17.2260 C   0  0  2  0  0  0  0  0  0  0  0  0
   -7.1470   -2.0360  -18.5380 C   0  0  0  0  0  0  0  0  0  0  0  0
   -1.1150   -2.7900  -15.8910 O   0  0  0  0  0  0  0  0  0  0  0  0
   -3.4920   -2.9060  -16.0770 C   0  0  0  0  0  0  0  0  0  0  0  0
   -7.9980   -4.5350  -14.7970 O   0  0  0  0  0  0  0  0  0  0  0  0
   -7.6090   -3.1730  -15.2590 C   0  0  1  0  0  0  0  0  0  0  0  0
   -4.5970   -2.5510  -16.7060 C   0  0  0  0  0  0  0  0  0  0  0  0
   -6.3920   -3.2250  -15.3270 O   0  0  0  0  0  0  0  0  0  0  0  0
  1  8  1  0
  2 19  1  0
  3  1  1  0
  3  5  1  0
  4 16  1  0
  4 15  2  0
  5 12  1  0
  6 14  2  0
  7 19  1  1
  7 20  1  0
  8  2  2  0
  8 13  1  0
  9 14  1  6
  9 10  1  0
  9  7  1  0
 10 18  1  0
 11 14  1  0
 13 12  1  6
 13  4  1  0
 18 17  1  6
 19 16  2  0
 20 18  1  0
M  END
$$$$

     RDKit          3D

 21 23  0  0  0  0  0  0  0  0999 V2000
   -1.4120   -0.2890  -18.9180 N   0  0  0  0  0  0  0  0  0  0  0  0
   -4.3210   -1.1700  -19.0930 C   0  0  0  0  0  0  0  0  0  0  0  0
    0.0010   -0.1600  -19.4120 C   0  0  1  0  0  0  0  0  0  0  0  0
    0.0980   -0.9360  -20.6540 C   0  0  0  0  0  0  0  0  0  0  0  0
   -8.5980   -1.6410  -17.2170 C   0  0  2  0  0  0  0  0  0  0  0  0
   -6.8190   -1.2530  -18.6210 O   0  0  0  0  0  0  0  0  0  0  0  0
   -7.7450   -2.2360  -18.1950 C   0  0  1  0  0  0  0  0  0  0  0  0
   -3.8040   -2.2460  -17.0110 C   0  0  0  0  0  0  0  0  0  0  0  0
   -7.7030   -2.5150  -16.7190 C   0  0  2  0  0  0  0  0  0  0  0  0
   -1.2530   -2.2310  -17.6250 O   0  0  0  0  0  0  0  0  0  0  0  0
   -9.9790   -1.6900  -16.8800 C   0  0  0  0  0  0  0  0  0  0  0  0
    0.3810    1.2350  -19.6930 C   0  0  0  0  0  0  0  0  0  0  0  0
    0.4860   -0.3600  -21.6420 O   0  0  0  0  0  0  0  0  0  0  0  0
   -3.3140   -1.5380  -18.1380 N   0  0  0  0  0  0  0  0  0  0  0  0
   -1.7810   -1.4300  -18.1990 C   0  0  0  0  0  0  0  0  0  0  0  0
   -0.2080   -2.1950  -20.5960 O   0  0  0  0  0  0  0  0  0  0  0  0
   -5.5020   -1.9330  -18.6300 C   0  0  2  0  0  0  0  0  0  0  0  0
   -8.5070   -3.7340  -16.4760 O   0  0  0  0  0  0  0  0  0  0  0  0
   -6.2430   -2.7230  -16.3940 C   0  0  1  0  0  0  0  0  0  0  0  0
   -6.0480   -3.3120  -15.1300 O   0  0  0  0  0  0  0  0  0  0  0  0
   -5.1920   -2.5910  -17.2710 C   0  0  2  0  0  0  0  0  0  0  0  0
  1 15  1  0
  2 14  1  0
  3 12  1  6
  3  1  1  0
  4 16  1  0
  4  3  1  0
  5 11  1  6
  5  9  1  0
  7  6  1  1
  7  5  1  0
  7  9  1  0
  9 18  1  6
  9 19  1  0
 13  4  2  0
 14  8  1  0
 15 14  1  0
 15 10  2  0
 17  2  1  1
 17  6  1  0
 17 21  1  0
 19 20  1  6
 21  8  1  1
 21 19  1  0
M  END
$$$$

     RDKit          3D

 20 23  0  0  0  0  0  0  0  0999 V2000
   -3.6580   -0.3340  -19.7480 C   0  0  0  0  0  0  0  0  0  0  0  0
   -4.3910   -3.1550  -16.0050 N   0  0  0  0  0  0  0  0  0  0  0  0
   -4.5080   -1.5950  -17.7270 C   0  0  0  0  0  0  0  0  0  0  0  0
   -2.1090   -1.1230  -17.9390 C   0  0  1  0  0  0  0  0  0  0  0  0
   -2.5390    0.4170  -20.4330 C   0  0  0  0  0  0  0  0  0  0  0  0
   -1.1680    0.0880  -19.6960 C   0  0  0  0  0  0  0  0  0  0  0  0
   -7.1550   -1.7830  -17.7770 C   0  0  0  0  0  0  0  0  0  0  0  0
   -7.8390   -3.1930  -16.1010 C   0  0  0  0  0  0  0  0  0  0  0  0
   -1.4740   -3.1110  -16.6660 O   0  0  0  0  0  0  0  0  0  0  0  0
   -3.6810   -2.4220  -16.9130 C   0  0  0  0  0  0  0  0  0  0  0  0
   -5.6540   -2.8120  -16.2870 C   0  0  0  0  0  0  0  0  0  0  0  0
   -2.3550   -2.3790  -17.1260 C   0  0  0  0  0  0  0  0  0  0  0  0
   -1.1920   -1.3760  -19.1340 C   0  0  0  0  0  0  0  0  0  0  0  0
   -3.5490   -0.8680  -18.4500 N   0  0  0  0  0  0  0  0  0  0  0  0
   -5.8660   -1.9710  -17.3290 C   0  0  1  0  0  0  0  0  0  0  0  0
   -8.6290   -4.1970  -15.4680 O   0  0  0  0  0  0  0  0  0  0  0  0
   -6.6050   -3.2170  -15.5500 N   0  0  0  0  0  0  0  0  0  0  0  0
   -4.7500   -0.4330  -20.3050 O   0  0  0  0  0  0  0  0  0  0  0  0
   -8.1840   -2.4090  -17.1490 C   0  0  0  0  0  0  0  0  0  0  0  0
   -9.6370   -2.4220  -17.6360 C   0  0  0  0  0  0  0  0  0  0  0  0
  1 14  1  0
  3 15  1  0
  3 10  2  0
  4 13  1  6
  4 12  1  0
  5  1  1  0
  5  6  1  0
  6 13  1  0
  7 19  2  0
  8 17  1  0
  8 16  2  0
 10  2  1  0
 11  2  2  0
 11 17  1  0
 12 10  1  0
 12  9  2  0
 14  4  1  0
 14  3  1  0
 15  7  1  6
 15 11  1  0
 18  1  2  0
 19  8  1  0
 20 19  1  0
M  END
$$$$

     RDKit          3D

 21 22  0  0  0  0  0  0  0  0999 V2000
   -6.0270   -1.9900  -17.7480 C   0  0  0  0  0  0  0  0  0  0  0  0
   -0.5350   -1.6930  -20.0280 C   0  0  0  0  0  0  0  0  0  0  0  0
  -10.1900   -0.9770  -16.8940 C   0  0  0  0  0  0  0  0  0  0  0  0
   -2.0510    0.0560  -18.5290 C   0  0  0  0  0  0  0  0  0  0  0  0
   -9.7600   -2.0180  -17.7680 O   0  0  0  0  0  0  0  0  0  0  0  0
   -4.0430   -1.1740  -17.0250 O   0  0  0  0  0  0  0  0  0  0  0  0
   -2.6350   -2.6610  -16.3730 O   0  0  0  0  0  0  0  0  0  0  0  0
   -2.7650   -1.7140  -17.0700 C   0  0  0  0  0  0  0  0  0  0  0  0
   -7.0700   -1.9730  -18.6720 C   0  0  0  0  0  0  0  0  0  0  0  0
   -4.7420   -1.7740  -18.0830 N   0  0  0  0  0  0  0  0  0  0  0  0
   -7.8080   -2.3010  -16.4450 C   0  0  1  0  0  0  0  0  0  0  0  0
   -8.0310   -3.4950  -15.6620 C   0  0  0  0  0  0  0  0  0  0  0  0
   -1.2710   -2.1360  -19.0030 C   0  0  0  0  0  0  0  0  0  0  0  0
   -8.7810   -4.4040  -16.3590 O   0  0  0  0  0  0  0  0  0  0  0  0
   -6.9460   -1.8570  -19.8840 O   0  0  0  0  0  0  0  0  0  0  0  0
   -7.6690   -3.4810  -14.4760 O   0  0  0  0  0  0  0  0  0  0  0  0
   -2.0620   -1.2720  -18.2270 C   0  0  0  0  0  0  0  0  0  0  0  0
   -1.3290    0.4930  -19.5860 C   0  0  0  0  0  0  0  0  0  0  0  0
   -6.2930   -2.2660  -16.5730 C   0  0  0  0  0  0  0  0  0  0  0  0
   -8.2600   -2.1620  -17.8470 C   0  0  1  0  0  0  0  0  0  0  0  0
   -0.4440   -0.3660  -20.3240 C   0  0  0  0  0  0  0  0  0  0  0  0
  1 19  1  0
  2 13  2  0
  4 17  2  0
  5  3  1  0
  8  6  1  0
  8  7  2  0
  9 20  1  0
  9  1  1  0
 10  1  2  3
 10  6  1  0
 11 12  1  6
 12 16  1  0
 13 17  1  0
 14 12  2  0
 15  9  2  0
 17  8  1  0
 18  4  1  0
 19 11  1  0
 20  5  1  1
 20 11  1  0
 21  2  1  0
 21 18  2  0
M  END
$$$$

     RDKit          3D

 21 22  0  0  0  0  0  0  0  0999 V2000
   -7.7850   -4.5350  -14.8850 O   0  0  0  0  0  0  0  0  0  0  0  0
    0.7520    0.2760  -20.4010 O   0  0  0  0  0  0  0  0  0  0  0  0
   -6.8150   -1.9170  -18.0730 C   0  0  0  0  0  0  0  0  0  0  0  0
   -4.6340   -2.0630  -17.1010 C   0  0  0  0  0  0  0  0  0  0  0  0
   -3.5750   -0.6980  -19.2320 C   0  0  0  0  0  0  0  0  0  0  0  0
   -5.3560   -1.8480  -18.2020 C   0  0  0  0  0  0  0  0  0  0  0  0
   -6.5020   -2.8900  -15.7060 N   0  0  0  0  0  0  0  0  0  0  0  0
   -7.6420   -3.6280  -15.7670 C   0  0  0  0  0  0  0  0  0  0  0  0
   -4.8060   -1.1730  -19.2830 C   0  0  0  0  0  0  0  0  0  0  0  0
   -3.3740   -1.4880  -16.9730 C   0  0  0  0  0  0  0  0  0  0  0  0
   -4.4760   -2.8980  -14.8660 O   0  0  0  0  0  0  0  0  0  0  0  0
   -2.8220   -0.7620  -18.0790 C   0  0  0  0  0  0  0  0  0  0  0  0
   -8.5120   -3.2630  -16.8210 O   0  0  0  0  0  0  0  0  0  0  0  0
   -7.6690   -3.0040  -17.9840 C   0  0  0  0  0  0  0  0  0  0  0  0
    0.4990    2.5310  -19.9880 O   0  0  0  0  0  0  0  0  0  0  0  0
   -1.4450   -0.2630  -18.0600 C   0  0  0  0  0  0  0  0  0  0  0  0
    0.5490    1.0260  -19.3770 S   0  0  2  0  0  0  0  0  0  0  0  0
    1.1360    1.1170  -18.1160 O   0  0  0  0  0  0  0  0  0  0  0  0
   -1.1980    0.9410  -18.9150 C   0  0  0  0  0  0  0  0  0  0  0  0
   -5.1960   -2.6460  -15.8550 C   0  0  0  0  0  0  0  0  0  0  0  0
   -7.9650   -3.5960  -18.9820 O   0  0  0  0  0  0  0  0  0  0  0  0
 17  2  1  6
  3 14  1  0
  4 10  1  0
  4 20  1  0
  5 12  1  0
  6  3  1  0
  6  4  2  0
  8  7  1  0
  8  1  2  0
  9  5  2  0
  9  6  1  0
 12 16  1  0
 12 10  2  0
 13  8  1  0
 14 13  1  0
 15 17  1  0
 17 19  1  0
 17 18  1  0
 19 16  1  0
 20  7  1  0
 20 11  2  0
 21 14  2  0
M  END
$$$$

     RDKit          3D

 18 20  0  0  0  0  0  0  0  0999 V2000
   -1.0000   -0.1950  -18.2160 C   0  0  0  0  0  0  0  0  0  0  0  0
   -1.9160   -1.3550  -16.2940 C   0  0  0  0  0  0  0  0  0  0  0  0
   -7.1020   -1.9930  -19.3340 O   0  0  0  0  0  0  0  0  0  0  0  0
   -7.5110   -3.0520  -16.0720 C   0  0  0  0  0  0  0  0  0  0  0  0
   -3.6300   -0.0840  -20.6170 O   0  0  0  0  0  0  0  0  0  0  0  0
   -6.6880   -2.5220  -17.1140 C   0  0  1  0  0  0  0  0  0  0  0  0
   -2.4990   -1.3710  -17.5460 C   0  0  2  0  0  0  0  0  0  0  0  0
   -4.8020   -1.5640  -18.4650 C   0  0  0  0  0  0  0  0  0  0  0  0
   -1.7890    0.3610  -19.1720 C   0  0  0  0  0  0  0  0  0  0  0  0
   -5.2830   -2.6720  -17.4430 C   0  0  0  0  0  0  0  0  0  0  0  0
   -7.5640   -1.8410  -18.0040 C   0  0  2  0  0  0  0  0  0  0  0  0
   -1.2120   -1.8720  -18.0040 C   0  0  1  0  0  0  0  0  0  0  0  0
   -8.8030   -1.7160  -17.4010 C   0  0  0  0  0  0  0  0  0  0  0  0
   -2.8700   -0.2710  -19.5100 C   0  0  0  0  0  0  0  0  0  0  0  0
   -8.8540   -2.5150  -16.2700 O   0  0  0  0  0  0  0  0  0  0  0  0
   -1.3180   -1.2330  -15.2370 O   0  0  0  0  0  0  0  0  0  0  0  0
   -3.3890   -1.0070  -18.4250 N   0  0  0  0  0  0  0  0  0  0  0  0
   -7.3880   -3.8110  -15.0620 O   0  0  0  0  0  0  0  0  0  0  0  0
  2 16  2  0
  4 18  2  0
  5 14  2  0
  6 10  1  6
  6  4  1  0
  7  2  1  0
  8 17  1  0
  8 10  1  0
  9  1  1  0
 11  3  1  6
 11 13  1  0
 11  6  1  0
 12  1  1  6
 12  7  1  0
 12  2  1  0
 13 15  1  0
 14  9  1  0
 14 17  1  0
 15  4  1  0
  7 17  1  6
M  END
$$$$

     RDKit          3D

 22 24  0  0  0  0  0  0  0  0999 V2000
   -5.2460   -1.5220  -17.5110 C   0  0  0  0  0  0  0  0  0  0  0  0
   -4.1160   -0.9910  -18.0930 C   0  0  0  0  0  0  0  0  0  0  0  0
    0.0740    0.9110  -17.9740 C   0  0  0  0  0  0  0  0  0  0  0  0
   -6.4340   -1.2510  -19.5610 N   0  0  0  0  0  0  0  0  0  0  0  0
   -0.6440   -1.5670  -19.6450 C   0  0  0  0  0  0  0  0  0  0  0  0
   -6.3580   -1.7540  -18.2930 C   0  0  0  0  0  0  0  0  0  0  0  0
   -9.0850   -0.9740  -17.8490 C   0  0  0  0  0  0  0  0  0  0  0  0
   -7.3120   -2.6680  -18.0870 O   0  0  0  0  0  0  0  0  0  0  0  0
   -7.9100   -2.0920  -16.0210 C   0  0  0  0  0  0  0  0  0  0  0  0
   -2.0510   -0.0780  -18.3850 N   0  0  0  0  0  0  0  0  0  0  0  0
   -2.0980   -1.1830  -19.1680 C   0  0  1  0  0  0  0  0  0  0  0  0
    1.0820   -0.0180  -18.3840 N   0  0  0  0  0  0  0  0  0  0  0  0
   -7.3760   -3.3840  -15.5650 C   0  0  0  0  0  0  0  0  0  0  0  0
   -4.1870   -0.8300  -19.3580 C   0  0  0  0  0  0  0  0  0  0  0  0
   -2.9320   -0.3080  -17.5390 C   0  0  0  0  0  0  0  0  0  0  0  0
   -3.0390   -0.7530  -20.0160 C   0  0  0  0  0  0  0  0  0  0  0  0
   -8.3020   -4.3790  -15.4710 O   0  0  0  0  0  0  0  0  0  0  0  0
   -8.4920   -2.2720  -17.4760 C   0  0  1  0  0  0  0  0  0  0  0  0
    2.2710    0.0340  -17.3700 C   0  0  0  0  0  0  0  0  0  0  0  0
   -5.3340   -0.8720  -20.0570 C   0  0  0  0  0  0  0  0  0  0  0  0
    0.5170   -1.4750  -18.6420 C   0  0  0  0  0  0  0  0  0  0  0  0
   -1.2410    1.1350  -18.7090 C   0  0  0  0  0  0  0  0  0  0  0  0
  2 15  1  0
  2  1  2  0
  4  6  2  0
 11  5  1  6
  5 21  1  0
  6  8  1  0
  6  1  1  0
  8 18  1  0
  9 13  1  0
 10 22  1  0
 10 15  1  0
 11 16  1  0
 11 10  1  0
 12  3  1  0
 12 19  1  0
 13 17  1  0
 14  2  1  0
 16 14  1  0
 18  7  1  6
 18  9  1  0
 20  4  1  0
 20 14  2  0
 21 12  1  0
 22  3  1  0
M  END
$$$$

     RDKit          3D

 33 38  0  0  0  0  0  0  0  0999 V2000
   -0.9030   -0.4060  -21.3030 O   0  0  0  0  0  0  0  0  0  0  0  0
   -0.3490   -0.9740  -18.9480 C   0  0  0  0  0  0  0  0  0  0  0  0
   -9.2810   -0.0590  -18.2530 C   0  0  0  0  0  0  0  0  0  0  0  0
   -5.9410   -3.5520  -17.0410 C   0  0  0  0  0  0  0  0  0  0  0  0
   -9.3200   -2.8900  -17.1540 C   0  0  0  0  0  0  0  0  0  0  0  0
  -11.1700   -1.0460  -17.3160 C   0  0  0  0  0  0  0  0  0  0  0  0
   -8.2740   -0.7530  -17.3490 C   0  0  0  0  0  0  0  0  0  0  0  0
   -4.2280   -0.6880  -19.9950 C   0  0  0  0  0  0  0  0  0  0  0  0
   -2.3680   -2.0550  -16.0420 C   0  0  1  0  0  0  0  0  0  0  0  0
   -0.2300   -1.3940  -20.4210 C   0  0  0  0  0  0  0  0  0  0  0  0
   -4.7180   -0.1460  -20.9120 O   0  0  0  0  0  0  0  0  0  0  0  0
  -10.4080   -1.9150  -16.6110 C   0  0  0  0  0  0  0  0  0  0  0  0
   -3.0900   -0.6110  -19.5030 O   0  0  0  0  0  0  0  0  0  0  0  0
   -4.9550   -1.8640  -18.2270 C   0  0  1  0  0  0  0  0  0  0  0  0
   -1.3550   -1.7800  -18.2510 C   0  0  1  0  0  0  0  0  0  0  0  0
   -0.6190   -1.9760  -15.0990 C   0  0  1  0  0  0  0  0  0  0  0  0
   -3.5320   -2.4110  -16.4510 N   0  0  0  0  0  0  0  0  0  0  0  0
   -4.8000   -1.6220  -19.4220 O   0  0  0  0  0  0  0  0  0  0  0  0
   -6.9230   -1.4310  -19.7040 O   0  0  0  0  0  0  0  0  0  0  0  0
   -5.9210   -2.9100  -18.3100 C   0  0  2  0  0  0  0  0  0  0  0  0
  -10.6200    0.1020  -17.8600 O   0  0  0  0  0  0  0  0  0  0  0  0
   -3.7540   -1.7800  -17.6910 C   0  0  1  0  0  0  0  0  0  0  0  0
   -7.5710   -3.3120  -15.1470 C   0  0  0  0  0  0  0  0  0  0  0  0
   -1.7250   -2.4540  -14.6750 C   0  0  0  0  0  0  0  0  0  0  0  0
   -1.1750   -1.8570  -16.7470 C   0  0  2  0  0  0  0  0  0  0  0  0
    0.0810   -1.1900  -16.0180 S   0  0  0  0  0  0  0  0  0  0  0  0
   -7.0000   -2.6310  -16.3860 C   0  0  1  0  0  0  0  0  0  0  0  0
   -7.8440   -2.5760  -14.1550 O   0  0  0  0  0  0  0  0  0  0  0  0
   -6.4170   -1.4150  -16.0910 F   0  0  0  0  0  0  0  0  0  0  0  0
   -7.2930   -2.4530  -18.7230 C   0  0  1  0  0  0  0  0  0  0  0  0
   -8.0280   -2.2430  -17.4650 C   0  0  1  0  0  0  0  0  0  0  0  0
   -7.4550   -4.5850  -15.0610 O   0  0  0  0  0  0  0  0  0  0  0  0
   -2.7090   -1.2010  -18.2860 C   0  0  2  0  0  0  0  0  0  0  0  0
  1 10  1  0
  3 21  1  0
  3  7  1  0
  4 27  1  0
  5 12  1  0
  6 12  1  0
  8 13  1  0
  8 18  1  0
  9 24  1  1
 10  2  1  0
 11  8  2  0
 14 18  1  6
 14 22  1  0
 15  2  1  1
 15 25  1  0
 16 24  1  1
 17  9  1  0
 20 14  1  0
 20  4  1  1
 21  6  1  0
 22 17  1  6
 23 32  2  0
 23 28  1  0
 25  9  1  0
 25 26  1  1
 25 16  1  0
 26 16  1  0
 27 29  1  1
 27 23  1  0
 30 19  1  1
 30 20  1  0
 30 31  1  0
 31  7  1  1
 31  5  1  0
 31 27  1  0
 33 13  1  6
 33 15  1  0
 33 22  1  0
M  END
$$$$

     RDKit          3D

 16 16  0  0  0  0  0  0  0  0999 V2000
   -4.1510   -2.0120  -18.4640 C   0  0  0  0  0  0  0  0  0  0  0  0
   -2.6480   -2.2470  -16.9620 C   0  0  2  0  0  0  0  0  0  0  0  0
   -5.1690   -2.6060  -17.7950 N   0  0  0  0  0  0  0  0  0  0  0  0
   -8.7440   -3.1550  -16.8990 P   0  0  1  0  0  0  0  0  0  0  0  0
   -4.8390   -2.7430  -16.3470 C   0  0  0  0  0  0  0  0  0  0  0  0
   -7.9370   -0.2480  -17.0200 C   0  0  0  0  0  0  0  0  0  0  0  0
   -8.4060   -3.3290  -18.3300 O   0  0  0  0  0  0  0  0  0  0  0  0
   -3.5420   -2.9040  -16.3390 C   0  0  0  0  0  0  0  0  0  0  0  0
   -3.0960   -2.2730  -17.7610 C   0  0  0  0  0  0  0  0  0  0  0  0
   -8.7600   -4.4550  -16.1650 O   0  0  0  0  0  0  0  0  0  0  0  0
   -7.5530   -2.3950  -16.2240 O   0  0  0  0  0  0  0  0  0  0  0  0
   -6.6080   -1.4630  -19.4420 O   0  0  0  0  0  0  0  0  0  0  0  0
   -9.9740   -2.2260  -16.8020 O   0  0  0  0  0  0  0  0  0  0  0  0
   -6.3900   -1.9420  -18.3130 C   0  0  0  0  0  0  0  0  0  0  0  0
   -6.9570   -1.3360  -16.9940 C   0  0  1  0  0  0  0  0  0  0  0  0
   -1.7550   -1.7040  -17.9130 C   0  0  0  0  0  0  0  0  0  0  0  0
  1  3  1  0
  1  9  1  0
  2 16  1  6
  2  8  1  0
  3  5  1  0
  4 13  1  6
  4 11  1  0
  4 10  1  0
  5  8  1  0
  7  4  2  0
  9  2  1  0
 12 14  2  0
 14  3  1  0
 14 15  1  0
 15  6  1  6
 15 11  1  0
M  END
$$$$

     RDKit          3D

 20 21  0  0  0  0  0  0  0  0999 V2000
   -6.7890   -2.9120  -16.0660 C   0  0  0  0  0  0  0  0  0  0  0  0
   -8.1730   -2.2070  -18.3970 N   0  0  0  0  0  0  0  0  0  0  0  0
   -4.1330   -1.6990  -17.6520 N   0  0  0  0  0  0  0  0  0  0  0  0
   -7.7750   -3.4460  -15.7320 C   0  0  0  0  0  0  0  0  0  0  0  0
   -0.3660   -2.1790  -19.2010 O   0  0  0  0  0  0  0  0  0  0  0  0
   -4.6020   -0.2270  -20.9310 O   0  0  0  0  0  0  0  0  0  0  0  0
   -6.7990   -1.8230  -18.6070 C   0  0  0  0  0  0  0  0  0  0  0  0
   -2.0880   -0.6600  -18.1780 C   0  0  1  0  0  0  0  0  0  0  0  0
   -2.7730   -1.7780  -17.4550 C   0  0  0  0  0  0  0  0  0  0  0  0
   -0.6360   -1.0600  -18.3680 C   0  0  0  0  0  0  0  0  0  0  0  0
   -5.0110   -2.0930  -16.7680 C   0  0  0  0  0  0  0  0  0  0  0  0
   -4.7050   -2.4600  -15.5600 O   0  0  0  0  0  0  0  0  0  0  0  0
   -4.0650   -0.5720  -19.7790 C   0  0  0  0  0  0  0  0  0  0  0  0
   -6.7090   -1.1470  -19.6980 O   0  0  0  0  0  0  0  0  0  0  0  0
   -6.2690   -2.3080  -17.2220 C   0  0  0  0  0  0  0  0  0  0  0  0
   -7.8320   -4.3370  -14.7480 N   0  0  0  0  0  0  0  0  0  0  0  0
   -2.6660   -0.4190  -19.5580 C   0  0  0  0  0  0  0  0  0  0  0  0
   -4.6560   -1.1060  -18.7990 N   0  0  0  0  0  0  0  0  0  0  0  0
   -9.0090   -2.3030  -17.5200 C   0  0  0  0  0  0  0  0  0  0  0  0
   -8.8990   -3.1140  -16.4110 C   0  0  0  0  0  0  0  0  0  0  0  0
  1  4  1  0
  2 19  1  0
  3  9  1  0
  3 11  1  0
  4 16  1  0
  5 10  1  0
  6 13  2  0
  7  2  1  0
  7 15  1  0
  8 10  1  6
  8  9  1  0
 11 12  2  0
 13 17  1  0
 13 18  1  0
 14  7  2  0
 15 11  1  0
 15  1  2  0
 17  8  1  0
 18  3  1  0
 19 20  1  0
 20  4  2  0
M  END
$$$$

     RDKit          3D

 22 24  0  0  0  0  0  0  0  0999 V2000
   -3.8630   -3.6650  -15.9210 O   0  0  0  0  0  0  0  0  0  0  0  0
   -8.1630   -3.0860  -16.8730 N   0  0  0  0  0  0  0  0  0  0  0  0
    0.0060    0.6880  -17.0110 C   0  0  0  0  0  0  0  0  0  0  0  0
   -1.2240   -1.4040  -17.0740 C   0  0  2  0  0  0  0  0  0  0  0  0
   -6.8480   -2.8830  -19.5430 O   0  0  0  0  0  0  0  0  0  0  0  0
   -7.0570   -2.2360  -18.3890 S   0  0  2  0  0  0  0  0  0  0  0  0
   -5.5990   -1.8310  -17.4750 C   0  0  2  0  0  0  0  0  0  0  0  0
   -3.2200   -1.4420  -17.4790 C   0  0  0  0  0  0  0  0  0  0  0  0
   -0.8950   -1.1600  -18.3610 C   0  0  0  0  0  0  0  0  0  0  0  0
   -7.8320   -3.5460  -15.8780 C   0  0  0  0  0  0  0  0  0  0  0  0
   -5.9960   -2.8240  -16.1330 C   0  0  0  0  0  0  0  0  0  0  0  0
   -1.0510    0.0620  -16.3730 C   0  0  0  0  0  0  0  0  0  0  0  0
   -0.7250   -2.1350  -19.1200 C   0  0  0  0  0  0  0  0  0  0  0  0
   -5.1410   -1.2220  -17.8920 C   0  0  0  0  0  0  0  0  0  0  0  0
   -8.0580   -4.4200  -15.2460 O   0  0  0  0  0  0  0  0  0  0  0  0
   -1.0300   -2.6170  -16.2590 C   0  0  0  0  0  0  0  0  0  0  0  0
    0.3210    0.2880  -18.4960 C   0  0  0  0  0  0  0  0  0  0  0  0
   -8.0470   -1.3490  -18.5520 O   0  0  0  0  0  0  0  0  0  0  0  0
   -4.0440   -0.8270  -18.0670 C   0  0  0  0  0  0  0  0  0  0  0  0
   -6.9440   -2.7760  -14.8920 C   0  0  0  0  0  0  0  0  0  0  0  0
   -2.6480   -2.1450  -16.7410 C   0  0  1  0  0  0  0  0  0  0  0  0
   -3.6320   -2.3740  -15.9010 C   0  0  0  0  0  0  0  0  0  0  0  0
  1 22  1  0
  2 10  1  0
  3 12  1  0
  4 21  1  0
  4 12  1  1
  4 16  1  0
  5  6  2  0
  6  7  1  0
  6  2  1  1
  7 14  1  1
  7 11  1  0
  9  4  1  0
 10 15  2  0
 10 20  1  0
 11 20  1  0
 13  9  2  0
 17  9  1  0
 17  3  1  0
 18  6  2  0
 19 14  1  0
 19  8  1  0
 21  8  1  6
 21 16  1  0
 21 22  1  0
M  END
$$$$

     RDKit          3D

 21 23  0  0  0  0  0  0  0  0999 V2000
   -0.8890   -1.4510  -17.9390 C   0  0  1  0  0  0  0  0  0  0  0  0
   -5.8380   -1.5690  -17.4600 C   0  0  2  0  0  0  0  0  0  0  0  0
   -1.2470   -1.5580  -19.4510 C   0  0  0  0  0  0  0  0  0  0  0  0
   -9.0790   -1.5190  -18.0540 O   0  0  0  0  0  0  0  0  0  0  0  0
   -8.0920   -2.9640  -16.6390 N   0  0  0  0  0  0  0  0  0  0  0  0
   -5.7200   -2.5260  -16.2410 C   0  0  2  0  0  0  0  0  0  0  0  0
   -3.7120   -2.7870  -17.3370 C   0  0  1  0  0  0  0  0  0  0  0  0
    1.5840   -0.4840  -18.7900 S   0  0  0  0  0  0  0  0  0  0  0  0
   -6.8110   -1.7730  -18.4570 C   0  0  2  0  0  0  0  0  0  0  0  0
    0.5110    0.6350  -20.0660 S   0  0  0  0  0  0  0  0  0  0  0  0
   -7.2500   -3.2600  -14.5500 O   0  0  0  0  0  0  0  0  0  0  0  0
   -1.3190   -2.6260  -17.0940 C   0  0  0  0  0  0  0  0  0  0  0  0
   -8.1450   -2.1500  -17.7380 C   0  0  0  0  0  0  0  0  0  0  0  0
   -6.5970   -2.8040  -19.4690 O   0  0  0  0  0  0  0  0  0  0  0  0
   -0.6710   -0.6990  -20.4090 C   0  0  0  0  0  0  0  0  0  0  0  0
    0.3650   -0.8000  -17.5550 C   0  0  0  0  0  0  0  0  0  0  0  0
   -4.2130   -1.5740  -17.9040 C   0  0  0  0  0  0  0  0  0  0  0  0
   -2.5140   -3.2470  -17.5670 N   0  0  0  0  0  0  0  0  0  0  0  0
   -9.0320   -4.0220  -16.4540 O   0  0  0  0  0  0  0  0  0  0  0  0
   -4.5740   -3.3610  -16.4260 O   0  0  0  0  0  0  0  0  0  0  0  0
   -7.0070   -2.9350  -15.8060 C   0  0  0  0  0  0  0  0  0  0  0  0
  1 16  1  0
  1 12  1  6
  2 17  1  6
  2  6  1  0
  3  1  1  0
  4 13  2  0
  5 19  1  0
  5 21  1  0
  6 20  1  6
  6 21  1  0
  7 18  1  1
  7 20  1  0
  8 16  1  0
  9 14  1  6
  9 13  1  0
  9  2  1  0
 10  8  1  0
 13  5  1  0
 15 10  1  0
 15  3  2  0
 17  7  1  0
 18 12  1  0
 21 11  2  0
M  END
$$$$

     RDKit          3D

 19 22  0  0  0  0  0  0  0  0999 V2000
   -4.7290   -2.1910  -18.9360 C   0  0  1  0  0  0  0  0  0  0  0  0
   -1.2540   -1.4610  -19.6690 C   0  0  0  0  0  0  0  0  0  0  0  0
   -1.9960   -3.1810  -15.9840 C   0  0  1  0  0  0  0  0  0  0  0  0
   -4.2550   -2.4010  -16.7660 C   0  0  0  0  0  0  0  0  0  0  0  0
   -8.6610   -1.0190  -16.9470 O   0  0  0  0  0  0  0  0  0  0  0  0
   -3.7790   -0.9330  -19.5070 C   0  0  0  0  0  0  0  0  0  0  0  0
   -8.8710   -3.2500  -17.6690 O   0  0  0  0  0  0  0  0  0  0  0  0
   -3.6750   -2.2930  -18.1650 C   0  0  1  0  0  0  0  0  0  0  0  0
   -5.6880   -2.4550  -16.4160 C   0  0  0  0  0  0  0  0  0  0  0  0
   -2.6620   -1.4880  -18.9290 C   0  0  1  0  0  0  0  0  0  0  0  0
   -6.1050   -1.4750  -18.5250 C   0  0  1  0  0  0  0  0  0  0  0  0
   -8.1710   -2.2820  -16.8760 S   0  0  2  0  0  0  0  0  0  0  0  0
   -0.8310   -2.4320  -15.3240 C   0  0  0  0  0  0  0  0  0  0  0  0
   -8.1410   -2.7760  -15.4950 O   0  0  0  0  0  0  0  0  0  0  0  0
   -2.2730   -1.9130  -16.7710 C   0  0  2  0  0  0  0  0  0  0  0  0
   -3.7650   -1.6470  -17.1120 C   0  0  2  0  0  0  0  0  0  0  0  0
   -1.0110   -2.5300  -16.8330 C   0  0  2  0  0  0  0  0  0  0  0  0
   -7.0960   -1.4410  -19.6170 C   0  0  0  0  0  0  0  0  0  0  0  0
   -6.7130   -2.2190  -17.3690 C   0  0  2  0  0  0  0  0  0  0  0  0
  1  6  1  6
  1 11  1  0
  1  8  1  0
 10  2  1  6
  3 13  1  1
  4  9  1  0
 12  5  1  1
  6 10  1  0
  7 12  1  0
  8 16  1  0
  8 10  1  6
 11 19  1  0
 12 14  1  0
 15  3  1  0
 15 16  1  6
 16  4  1  1
 17 15  1  0
 17  3  1  0
 17 13  1  1
 11 18  1  6
 19 12  1  0
 19  9  1  1
M  END
$$$$

     RDKit          3D

 15 15  0  0  0  0  0  0  0  0999 V2000
   -7.7630   -3.0000  -16.1940 C   0  0  0  0  0  0  0  0  0  0  0  0
   -6.6090   -2.4250  -16.5060 N   0  0  0  0  0  0  0  0  0  0  0  0
   -9.5010   -1.3520  -17.0170 C   0  0  0  0  0  0  0  0  0  0  0  0
   -2.9110   -0.3250  -17.2370 C   0  0  0  0  0  0  0  0  0  0  0  0
   -4.0070   -4.1650  -16.9130 O   0  0  0  0  0  0  0  0  0  0  0  0
   -2.4670   -2.4900  -16.3340 C   0  0  0  0  0  0  0  0  0  0  0  0
   -4.6430   -1.9790  -17.4010 C   0  0  0  0  0  0  0  0  0  0  0  0
   -4.1880   -0.7050  -17.6360 C   0  0  0  0  0  0  0  0  0  0  0  0
   -3.7520   -2.9120  -16.9480 C   0  0  0  0  0  0  0  0  0  0  0  0
   -9.4410   -3.5870  -17.7760 N   0  0  0  0  0  0  0  0  0  0  0  0
   -7.7690   -3.6940  -15.1790 O   0  0  0  0  0  0  0  0  0  0  0  0
   -6.0070   -2.4220  -17.6790 C   0  0  0  0  0  0  0  0  0  0  0  0
   -8.9000   -2.6800  -16.9630 C   0  0  1  0  0  0  0  0  0  0  0  0
   -6.3010   -2.8940  -18.7210 O   0  0  0  0  0  0  0  0  0  0  0  0
   -2.0630   -1.2000  -16.6050 C   0  0  0  0  0  0  0  0  0  0  0  0
  1 11  2  0
  2  1  1  0
  4 15  2  0
  7  9  1  0
  8  7  2  0
  8  4  1  0
  9  5  2  0
  9  6  1  0
 10 13  1  0
 12  7  1  0
 12  2  1  0
 13  3  1  6
 13  1  1  0
 14 12  2  0
 15  6  1  0
M  END
$$$$

     RDKit          3D

 15 16  0  0  0  0  0  0  0  0999 V2000
   -2.5270   -3.7370  -16.0110 C   0  0  0  0  0  0  0  0  0  0  0  0
   -3.9520   -2.0040  -17.6740 C   0  0  2  0  0  0  0  0  0  0  0  0
   -6.1530   -3.0230  -15.6130 O   0  0  0  0  0  0  0  0  0  0  0  0
   -3.9500   -1.0520  -18.6470 C   0  0  0  0  0  0  0  0  0  0  0  0
   -1.6290   -1.7320  -16.6600 O   0  0  0  0  0  0  0  0  0  0  0  0
   -8.4000   -4.2280  -15.5770 O   0  0  0  0  0  0  0  0  0  0  0  0
   -2.2170   -3.8410  -17.4550 C   0  0  0  0  0  0  0  0  0  0  0  0
   -5.2910   -2.1690  -17.6490 C   0  0  0  0  0  0  0  0  0  0  0  0
   -8.6560   -3.4310  -16.5450 C   0  0  0  0  0  0  0  0  0  0  0  0
   -2.8480   -2.5710  -16.8200 C   0  0  1  0  0  0  0  0  0  0  0  0
   -7.5570   -2.7460  -17.3740 C   0  0  0  0  0  0  0  0  0  0  0  0
   -5.1620   -1.1250  -18.9250 C   0  0  0  0  0  0  0  0  0  0  0  0
   -5.9940   -1.7530  -18.7240 N   0  0  0  0  0  0  0  0  0  0  0  0
   -6.2760   -2.7310  -16.7880 C   0  0  0  0  0  0  0  0  0  0  0  0
   -9.7600   -3.1710  -16.9450 O   0  0  0  0  0  0  0  0  0  0  0  0
  2  4  1  1
  2  8  1  0
  2 10  1  0
  7 10  1  0
  7  1  1  0
  8 14  1  0
  9  6  1  0
 10  5  1  1
 10  1  1  0
 11 14  1  0
 11  9  1  0
 12 13  1  0
 12  4  1  0
 13  8  1  0
 14  3  2  0
 15  9  2  0
M  END
$$$$

     RDKit          3D

 20 21  0  0  0  0  0  0  0  0999 V2000
   -8.4320   -1.2200  -17.7280 C   0  0  0  0  0  0  0  0  0  0  0  0
   -1.6860   -0.4150  -18.4480 C   0  0  0  0  0  0  0  0  0  0  0  0
   -7.0160   -1.2870  -18.3210 C   0  0  1  0  0  0  0  0  0  0  0  0
   -8.9530   -2.6160  -17.5280 C   0  0  0  0  0  0  0  0  0  0  0  0
   -5.8850   -1.4840  -17.6030 C   0  0  1  0  0  0  0  0  0  0  0  0
    0.6870   -0.9740  -18.4660 O   0  0  0  0  0  0  0  0  0  0  0  0
   -3.3920   -1.5050  -17.5410 N   0  0  0  0  0  0  0  0  0  0  0  0
   -8.0030   -3.5580  -16.9930 N   0  0  0  0  0  0  0  0  0  0  0  0
   -2.6570   -2.5060  -17.0100 C   0  0  0  0  0  0  0  0  0  0  0  0
   -1.2880   -2.7260  -17.5610 C   0  0  0  0  0  0  0  0  0  0  0  0
   -5.6360   -2.0000  -16.3660 C   0  0  0  0  0  0  0  0  0  0  0  0
   -4.6830   -1.2940  -18.2780 C   0  0  0  0  0  0  0  0  0  0  0  0
   -7.1280   -1.2010  -19.7550 O   0  0  0  0  0  0  0  0  0  0  0  0
   -0.5860   -1.5670  -18.1740 C   0  0  1  0  0  0  0  0  0  0  0  0
   -7.5210   -3.4690  -15.7210 C   0  0  0  0  0  0  0  0  0  0  0  0
   -7.9670   -4.1690  -14.9150 O   0  0  0  0  0  0  0  0  0  0  0  0
   -6.4780   -2.6430  -15.5920 N   0  0  0  0  0  0  0  0  0  0  0  0
   -2.6840   -0.2640  -17.6900 C   0  0  0  0  0  0  0  0  0  0  0  0
    1.9280   -0.9910  -18.1840 C   0  0  0  0  0  0  0  0  0  0  0  0
   -4.5580   -0.8820  -19.4380 O   0  0  0  0  0  0  0  0  0  0  0  0
  1  4  1  0
  2 14  1  0
  2 18  1  0
  3 13  1  6
  3  1  1  0
  3  5  1  0
  4  8  1  0
  5 12  1  6
  5 11  1  0
  6 19  1  0
  7  9  1  0
  8 15  1  0
 10  9  1  0
 11 17  1  0
 12  7  1  0
 14  6  1  1
 14 10  1  0
 15 17  1  0
 15 16  2  0
 18  7  1  0
 20 12  2  0
M  END
$$$$

     RDKit          3D

 23 25  0  0  0  0  0  0  0  0999 V2000
   -2.2360   -2.1120  -17.6400 C   0  0  0  0  0  0  0  0  0  0  0  0
   -7.0720   -2.8280  -15.9090 C   0  0  1  0  0  0  0  0  0  0  0  0
   -9.6830   -2.3610  -16.0240 O   0  0  0  0  0  0  0  0  0  0  0  0
  -11.1440   -0.1550  -16.4820 C   0  0  0  0  0  0  0  0  0  0  0  0
   -2.9140   -0.9620  -19.5900 C   0  0  0  0  0  0  0  0  0  0  0  0
   -0.2760   -2.8300  -17.3670 C   0  0  0  0  0  0  0  0  0  0  0  0
   -7.9170   -2.1740  -17.1750 C   0  0  1  0  0  0  0  0  0  0  0  0
   -0.5290   -1.5590  -19.4070 C   0  0  0  0  0  0  0  0  0  0  0  0
   -6.0390   -1.4510  -18.8360 C   0  0  0  0  0  0  0  0  0  0  0  0
   -4.9500   -2.3610  -17.1170 O   0  0  0  0  0  0  0  0  0  0  0  0
   -0.9340   -2.0630  -18.1520 C   0  0  0  0  0  0  0  0  0  0  0  0
   -9.7240   -0.4380  -17.0160 N   0  0  0  0  0  0  0  0  0  0  0  0
   -9.1580   -1.6330  -16.6780 C   0  0  0  0  0  0  0  0  0  0  0  0
   -1.6140   -0.9330  -20.1030 C   0  0  0  0  0  0  0  0  0  0  0  0
   -2.0310   -2.6170  -16.3750 C   0  0  0  0  0  0  0  0  0  0  0  0
   -4.7140   -1.4770  -18.0760 C   0  0  1  0  0  0  0  0  0  0  0  0
   -7.6230   -4.0860  -14.8810 C   0  0  0  0  0  0  0  0  0  0  0  0
   -9.4230    0.5710  -18.0980 C   0  0  0  0  0  0  0  0  0  0  0  0
   -7.1340   -1.4720  -18.2420 C   0  0  0  0  0  0  0  0  0  0  0  0
   -3.3460   -1.6000  -18.3470 C   0  0  0  0  0  0  0  0  0  0  0  0
   -5.5010   -3.0100  -16.0460 C   0  0  0  0  0  0  0  0  0  0  0  0
   -4.8670   -3.5900  -15.1210 O   0  0  0  0  0  0  0  0  0  0  0  0
   -0.9080   -3.0590  -16.2560 N   0  0  0  0  0  0  0  0  0  0  0  0
  1 15  1  0
  2 17  1  6
  5 20  2  0
  6 23  1  0
  7 13  1  1
  7  2  1  0
  8 11  1  0
  9 19  1  0
  9 16  1  0
 10 21  1  0
 11  1  2  0
 11  6  1  0
 12 13  1  0
 12  4  1  0
 13  3  2  0
 14  5  1  0
 14  8  2  0
 15 23  1  0
 16 20  1  6
 16 10  1  0
 18 12  1  0
 19  7  1  0
 20  1  1  0
 21  2  1  0
 21 22  2  0
M  END
$$$$

     RDKit          3D

 19 21  0  0  0  0  0  0  0  0999 V2000
   -2.9210   -1.4480  -17.7780 C   0  0  0  0  0  0  0  0  0  0  0  0
   -3.0210   -2.8920  -15.4020 C   0  0  0  0  0  0  0  0  0  0  0  0
   -1.7770   -2.4090  -15.9510 C   0  0  0  0  0  0  0  0  0  0  0  0
   -6.4180   -1.0540  -20.2020 O   0  0  0  0  0  0  0  0  0  0  0  0
   -4.0410   -0.6520  -19.8840 C   0  0  0  0  0  0  0  0  0  0  0  0
   -5.2960   -1.1050  -19.3890 C   0  0  2  0  0  0  0  0  0  0  0  0
   -1.7370   -1.6540  -17.1340 C   0  0  0  0  0  0  0  0  0  0  0  0
   -2.2470    0.5070  -18.7690 O   0  0  0  0  0  0  0  0  0  0  0  0
   -4.2150   -2.6060  -16.0760 C   0  0  0  0  0  0  0  0  0  0  0  0
   -7.7580   -2.2410  -18.2340 O   0  0  0  0  0  0  0  0  0  0  0  0
   -8.5340   -4.1470  -16.0180 O   0  0  0  0  0  0  0  0  0  0  0  0
   -5.3740   -3.0370  -15.5700 C   0  0  0  0  0  0  0  0  0  0  0  0
   -7.5800   -3.3640  -14.2710 O   0  0  0  0  0  0  0  0  0  0  0  0
   -6.5670   -2.2840  -17.5820 C   0  0  0  0  0  0  0  0  0  0  0  0
   -3.0750   -0.5460  -18.8630 C   0  0  1  0  0  0  0  0  0  0  0  0
   -6.5430   -2.9120  -16.3080 C   0  0  0  0  0  0  0  0  0  0  0  0
   -4.1710   -1.9600  -17.3810 C   0  0  0  0  0  0  0  0  0  0  0  0
   -7.6290   -3.5160  -15.5810 C   0  0  0  0  0  0  0  0  0  0  0  0
   -5.3760   -1.7470  -18.1330 C   0  0  0  0  0  0  0  0  0  0  0  0
  1 17  1  0
  1  7  2  0
  3  2  2  0
  5  6  1  0
  5 15  1  0
  6  4  1  6
  6 19  1  0
  7  3  1  0
  9 12  2  0
  9  2  1  0
 10 14  1  0
 11 18  2  0
 14 16  2  0
 15  8  1  1
 15  1  1  0
 16 18  1  0
 16 12  1  0
 17  9  1  0
 18 13  1  0
 19 14  1  0
 19 17  2  0
M  END
$$$$

     RDKit          3D

 21 22  0  0  0  0  0  0  0  0999 V2000
   -0.9260   -1.1710  -19.5610 N   0  0  0  0  0  0  0  0  0  0  0  0
    0.4990   -2.2190  -20.1750 N   0  0  0  0  0  0  0  0  0  0  0  0
   -4.0930   -2.4570  -17.0940 C   0  0  0  0  0  0  0  0  0  0  0  0
   -5.0620   -3.0410  -16.2780 O   0  0  0  0  0  0  0  0  0  0  0  0
   -2.7260   -2.5760  -16.6360 C   0  0  0  0  0  0  0  0  0  0  0  0
   -9.0620   -0.6380  -17.9990 O   0  0  0  0  0  0  0  0  0  0  0  0
   -1.7280   -2.2400  -17.5400 C   0  0  0  0  0  0  0  0  0  0  0  0
   -4.3250   -1.7860  -18.2770 C   0  0  0  0  0  0  0  0  0  0  0  0
   -0.0470   -0.6760  -21.6100 C   0  0  0  0  0  0  0  0  0  0  0  0
   -7.2380   -4.2070  -15.0070 O   0  0  0  0  0  0  0  0  0  0  0  0
   -0.2370   -1.5600  -20.2310 C   0  0  0  0  0  0  0  0  0  0  0  0
   -8.3100   -1.8280  -18.0300 C   0  0  2  0  0  0  0  0  0  0  0  0
   -3.3050   -1.2770  -19.0410 C   0  0  0  0  0  0  0  0  0  0  0  0
   -9.0880   -2.7780  -17.0330 C   0  0  0  0  0  0  0  0  0  0  0  0
   -2.0370   -1.5090  -18.7640 C   0  0  0  0  0  0  0  0  0  0  0  0
   -2.3910   -3.1900  -15.2980 C   0  0  0  0  0  0  0  0  0  0  0  0
   -6.5270   -2.7660  -16.6340 C   0  0  1  0  0  0  0  0  0  0  0  0
   -7.5220   -3.2040  -15.7810 C   0  0  0  0  0  0  0  0  0  0  0  0
   -8.7770   -3.0690  -15.8900 N   0  0  0  0  0  0  0  0  0  0  0  0
  -10.1720   -0.4800  -17.0290 C   0  0  0  0  0  0  0  0  0  0  0  0
   -6.9830   -1.9370  -17.5650 C   0  0  0  0  0  0  0  0  0  0  0  0
  1 15  1  0
  3  5  2  0
  3  4  1  0
  5 16  1  0
  6 20  1  0
  7  5  1  0
  8  3  1  0
  9 11  1  0
 11  2  2  0
 11  1  1  0
 12  6  1  1
 12 21  1  0
 12 14  1  0
 13 15  1  0
 13  8  2  0
 14 19  1  0
 15  7  2  0
 17  4  1  1
 17 18  1  0
 18 10  2  0
 19 18  1  0
 21 17  1  0
M  END
$$$$

     RDKit          3D

 20 22  0  0  0  0  0  0  0  0999 V2000
   -6.2390   -2.3300  -16.2930 C   0  0  0  0  0  0  0  0  0  0  0  0
   -6.9990   -1.7660  -17.1820 C   0  0  1  0  0  0  0  0  0  0  0  0
   -9.0080   -3.1440  -17.4170 O   0  0  0  0  0  0  0  0  0  0  0  0
   -4.3200   -3.5540  -15.9750 C   0  0  0  0  0  0  0  0  0  0  0  0
   -5.5420   -0.9520  -19.5750 O   0  0  0  0  0  0  0  0  0  0  0  0
   -5.1340   -2.3440  -18.3240 O   0  0  0  0  0  0  0  0  0  0  0  0
   -5.5020   -3.4420  -16.0790 N   0  0  0  0  0  0  0  0  0  0  0  0
   -1.0330   -3.0200  -17.3160 C   0  0  0  0  0  0  0  0  0  0  0  0
   -7.1800   -1.6410  -18.5600 C   0  0  0  0  0  0  0  0  0  0  0  0
   -1.8960   -0.6170  -17.7990 C   0  0  0  0  0  0  0  0  0  0  0  0
   -4.0850   -1.6670  -17.3070 C   0  0  0  0  0  0  0  0  0  0  0  0
   -0.1650   -1.8910  -17.5340 O   0  0  0  0  0  0  0  0  0  0  0  0
   -9.3670   -1.3880  -16.1210 O   0  0  0  0  0  0  0  0  0  0  0  0
   -9.5810   -1.0950  -17.6290 C   0  0  0  0  0  0  0  0  0  0  0  0
   -2.0960   -2.3200  -16.3170 C   0  0  1  0  0  0  0  0  0  0  0  0
   -2.0860   -1.0870  -16.7330 C   0  0  0  0  0  0  0  0  0  0  0  0
   -0.7440   -1.3130  -18.7130 C   0  0  0  0  0  0  0  0  0  0  0  0
   -8.6710   -2.0290  -17.1950 C   0  0  1  0  0  0  0  0  0  0  0  0
   -5.9980   -1.6090  -18.7470 C   0  0  0  0  0  0  0  0  0  0  0  0
   -3.3910   -2.9220  -16.7370 C   0  0  1  0  0  0  0  0  0  0  0  0
  1  7  1  0
  2  9  1  6
  2  1  1  0
  5 19  2  0
  6 11  1  0
  7  4  1  0
 10 16  1  0
 12  8  1  0
 14 18  1  0
 14 13  1  0
 15  8  1  6
 16 15  1  0
 17 10  1  0
 17 12  1  0
 18  3  1  6
 18  2  1  0
 18 13  1  0
 19  9  1  0
 19  6  1  0
 20 11  1  1
 20 15  1  0
 20  4  1  0
M  END
$$$$

     RDKit          3D

 15 16  0  0  0  0  0  0  0  0999 V2000
   -7.7320   -3.1980  -15.8160 C   0  0  0  0  0  0  0  0  0  0  0  0
   -3.6880   -1.2640  -17.7610 N   0  0  0  0  0  0  0  0  0  0  0  0
   -6.9280   -1.9100  -19.0090 C   0  0  0  0  0  0  0  0  0  0  0  0
   -1.0670   -0.9370  -18.1020 O   0  0  0  0  0  0  0  0  0  0  0  0
   -8.8880   -2.7540  -15.8940 O   0  0  0  0  0  0  0  0  0  0  0  0
   -6.8530   -2.6190  -16.7750 C   0  0  0  0  0  0  0  0  0  0  0  0
   -1.8970   -0.6520  -19.2810 C   0  0  0  0  0  0  0  0  0  0  0  0
   -3.2770   -0.3400  -18.7560 C   0  0  0  0  0  0  0  0  0  0  0  0
   -5.6290   -1.5800  -18.9330 C   0  0  0  0  0  0  0  0  0  0  0  0
   -7.5250   -2.3750  -17.9200 C   0  0  0  0  0  0  0  0  0  0  0  0
   -5.5660   -2.3000  -16.6260 C   0  0  0  0  0  0  0  0  0  0  0  0
   -7.3600   -4.0330  -14.9940 O   0  0  0  0  0  0  0  0  0  0  0  0
   -4.9090   -1.6750  -17.7570 C   0  0  0  0  0  0  0  0  0  0  0  0
   -1.5840   -0.5800  -16.9020 C   0  0  0  0  0  0  0  0  0  0  0  0
   -2.6970   -1.6140  -16.7150 C   0  0  0  0  0  0  0  0  0  0  0  0
  1 12  1  0
  2 13  1  0
  2 15  1  0
  3  9  2  0
  3 10  1  0
  4 14  1  0
  5  1  2  0
  6 11  1  0
  6  1  1  0
  7  8  1  0
  7  4  1  0
  8  2  1  0
  9 13  1  0
 10  6  2  0
 13 11  2  0
 14 15  1  0
M  END
$$$$

     RDKit          3D

 21 24  0  0  0  0  0  0  0  0999 V2000
    1.3960   -1.7700  -19.3500 C   0  0  0  0  0  0  0  0  0  0  0  0
   -9.7480   -2.9500  -17.1380 C   0  0  0  0  0  0  0  0  0  0  0  0
   -5.3410   -1.3670  -19.0270 C   0  0  0  0  0  0  0  0  0  0  0  0
   -6.8010   -3.4800  -15.0150 N   0  0  0  0  0  0  0  0  0  0  0  0
    0.1820    0.8020  -17.9740 N   0  0  0  0  0  0  0  0  0  0  0  0
   -4.3800   -2.8590  -15.1250 S   0  0  0  0  0  0  0  0  0  0  0  0
   -2.9860   -2.3970  -16.2000 C   0  0  2  0  0  0  0  0  0  0  0  0
   -5.7920   -2.9690  -15.7290 C   0  0  0  0  0  0  0  0  0  0  0  0
    0.1230   -2.6630  -19.2990 C   0  0  0  0  0  0  0  0  0  0  0  0
   -1.4670   -1.6370  -16.7820 C   0  0  0  0  0  0  0  0  0  0  0  0
   -5.9970   -2.4580  -17.0050 C   0  0  0  0  0  0  0  0  0  0  0  0
   -8.3870   -3.0030  -16.5910 C   0  0  0  0  0  0  0  0  0  0  0  0
   -8.0890   -3.5570  -15.3430 N   0  0  0  0  0  0  0  0  0  0  0  0
   -7.7160   -1.7930  -18.6330 N   0  0  0  0  0  0  0  0  0  0  0  0
   -0.4470   -0.2280  -18.7520 C   0  0  2  0  0  0  0  0  0  0  0  0
   -6.8140   -1.1910  -19.3350 C   0  0  0  0  0  0  0  0  0  0  0  0
   -1.6610   -0.8460  -18.3610 C   0  0  0  0  0  0  0  0  0  0  0  0
   -4.9330   -1.9960  -17.8180 C   0  0  0  0  0  0  0  0  0  0  0  0
   -7.3930   -2.4280  -17.4010 C   0  0  0  0  0  0  0  0  0  0  0  0
    0.0650   -1.2010  -19.6560 N   0  0  0  0  0  0  0  0  0  0  0  0
   -3.4680   -2.4610  -17.6400 C   0  0  0  0  0  0  0  0  0  0  0  0
  1  9  1  0
  2 12  1  0
  3 18  2  0
  7 10  1  1
  7  6  1  0
  8  6  1  0
  8  4  1  0
 11  8  2  0
 12 13  1  0
 13  4  2  0
 14 19  1  0
 15 17  1  0
 15  5  1  1
 16  3  1  0
 16 14  2  0
 17 10  1  0
 18 21  1  0
 18 11  1  0
 19 11  1  0
 19 12  2  0
 20  1  1  0
 20  9  1  0
 20 15  1  0
 21  7  1  0
M  END
$$$$

     RDKit          3D

 26 29  0  0  0  0  0  0  0  0999 V2000
   -1.9200   -0.7850  -16.2800 O   0  0  0  0  0  0  0  0  0  0  0  0
   -9.2880   -4.0570  -15.9230 O   0  0  0  0  0  0  0  0  0  0  0  0
   -3.0490   -1.7130  -18.4810 C   0  0  2  0  0  0  0  0  0  0  0  0
   -0.9980   -1.8790  -20.0600 C   0  0  0  0  0  0  0  0  0  0  0  0
   -4.0750   -2.0620  -19.9720 S   0  0  0  0  0  0  0  0  0  0  0  0
   -6.6270   -3.6670  -15.5760 N   0  0  0  0  0  0  0  0  0  0  0  0
    0.4790    0.5450  -20.5380 O   0  0  0  0  0  0  0  0  0  0  0  0
    0.9910    0.6190  -18.1720 O   0  0  0  0  0  0  0  0  0  0  0  0
   -1.9380   -0.9730  -19.2830 C   0  0  2  0  0  0  0  0  0  0  0  0
   -1.3330    0.4410  -18.9930 C   0  0  0  0  0  0  0  0  0  0  0  0
   -7.3000   -2.9880  -16.5700 C   0  0  0  0  0  0  0  0  0  0  0  0
   -5.3820   -2.0200  -17.5990 N   0  0  0  0  0  0  0  0  0  0  0  0
   -6.8620   -1.1050  -19.5870 C   0  0  0  0  0  0  0  0  0  0  0  0
   -4.6390   -1.7470  -18.5700 C   0  0  1  0  0  0  0  0  0  0  0  0
   -4.2810   -1.9090  -16.4840 C   0  0  2  0  0  0  0  0  0  0  0  0
   -8.8420   -1.5840  -18.3010 C   0  0  0  0  0  0  0  0  0  0  0  0
   -9.4260   -2.2850  -17.4250 N   0  0  0  0  0  0  0  0  0  0  0  0
   -6.7500   -2.2700  -17.5760 C   0  0  0  0  0  0  0  0  0  0  0  0
   -2.9810   -1.2140  -17.0860 C   0  0  1  0  0  0  0  0  0  0  0  0
   -7.4680   -1.6870  -18.5200 C   0  0  0  0  0  0  0  0  0  0  0  0
   -8.6120   -3.1010  -16.6310 N   0  0  0  0  0  0  0  0  0  0  0  0
    0.1480    0.1980  -19.3580 P   0  0  1  0  0  0  0  0  0  0  0  0
   -3.8930   -2.2890  -15.0770 C   0  0  0  0  0  0  0  0  0  0  0  0
    0.3540   -1.4450  -19.4370 C   0  0  2  0  0  0  0  0  0  0  0  0
    1.4850   -1.7080  -20.2990 O   0  0  0  0  0  0  0  0  0  0  0  0
   -6.7950   -0.5280  -20.5610 O   0  0  0  0  0  0  0  0  0  0  0  0
  3  5  1  6
  3 19  1  0
  4 24  1  0
  9  4  1  1
  9 10  1  0
  9  3  1  0
 11  6  1  0
 12 18  1  0
 12 15  1  0
 13 20  2  0
 14  5  1  6
 14  3  1  0
 14 12  1  0
 15 23  1  6
 16 17  2  0
 17 21  1  0
 18 11  2  0
 19 15  1  0
 19  1  1  1
 20 16  1  0
 20 18  1  0
 21 11  1  0
 21  2  1  0
 22  7  2  0
 22 10  1  0
 22  8  1  1
 24 25  1  6
 24 22  1  0
 26 13  2  0
M  END
$$$$

     RDKit          3D

 20 22  0  0  0  0  0  0  0  0999 V2000
   -6.7540   -0.9540  -18.6300 N   0  0  0  0  0  0  0  0  0  0  0  0
   -6.2470   -3.2820  -16.0020 N   0  0  0  0  0  0  0  0  0  0  0  0
   -6.1160   -2.3960  -16.9940 C   0  0  0  0  0  0  0  0  0  0  0  0
   -1.2290    0.6300  -19.5990 O   0  0  0  0  0  0  0  0  0  0  0  0
   -7.6560   -4.5270  -14.7790 O   0  0  0  0  0  0  0  0  0  0  0  0
   -5.0600   -1.9530  -17.5860 N   0  0  0  0  0  0  0  0  0  0  0  0
   -5.4230   -1.0820  -18.5990 C   0  0  0  0  0  0  0  0  0  0  0  0
   -0.6430   -1.0990  -17.7320 C   0  0  2  0  0  0  0  0  0  0  0  0
   -8.5580   -3.1920  -16.3390 N   0  0  0  0  0  0  0  0  0  0  0  0
   -1.4200   -2.2280  -17.2760 C   0  0  2  0  0  0  0  0  0  0  0  0
   -1.2220   -3.4730  -17.5770 O   0  0  0  0  0  0  0  0  0  0  0  0
   -7.5090   -3.6810  -15.7080 C   0  0  0  0  0  0  0  0  0  0  0  0
   -3.7630   -2.4840  -17.3180 C   0  0  0  0  0  0  0  0  0  0  0  0
   -1.1790   -0.7600  -19.2840 C   0  0  1  0  0  0  0  0  0  0  0  0
   -2.5730   -1.3570  -19.1620 C   0  0  0  0  0  0  0  0  0  0  0  0
   -7.2240   -1.7740  -17.6600 C   0  0  0  0  0  0  0  0  0  0  0  0
   -3.3320   -1.0640  -20.2610 O   0  0  0  0  0  0  0  0  0  0  0  0
   -2.7030   -1.9700  -18.0290 C   0  0  0  0  0  0  0  0  0  0  0  0
   -8.5020   -2.1150  -17.4250 N   0  0  0  0  0  0  0  0  0  0  0  0
    0.6040   -0.4970  -17.3020 O   0  0  0  0  0  0  0  0  0  0  0  0
  1  7  1  0
  1 16  2  0
  2 12  1  0
  3  2  2  0
  6 13  1  0
  6  3  1  0
  7  6  1  0
  8 20  1  6
  8 10  1  0
  9 12  1  0
 10 11  1  6
 12  5  2  0
 14  4  1  1
 14 15  1  0
 14  8  1  0
 15 18  2  0
 16 19  1  0
 16  3  1  0
 17 15  1  0
 18 13  1  0
 18 10  1  0
 19  9  2  0
M  END
$$$$

     RDKit          3D

 20 22  0  0  0  0  0  0  0  0999 V2000
   -4.8310   -1.8470  -17.4280 C   0  0  0  0  0  0  0  0  0  0  0  0
   -1.3600    1.1160  -17.8880 C   0  0  0  0  0  0  0  0  0  0  0  0
   -2.7200   -0.9810  -17.9840 C   0  0  1  0  0  0  0  0  0  0  0  0
   -2.2730   -3.8790  -15.9320 O   0  0  0  0  0  0  0  0  0  0  0  0
   -4.0840   -1.0420  -18.2760 C   0  0  0  0  0  0  0  0  0  0  0  0
   -6.4480   -2.9320  -16.2830 C   0  0  0  0  0  0  0  0  0  0  0  0
   -8.4990   -1.8980  -17.7800 N   0  0  0  0  0  0  0  0  0  0  0  0
   -8.7600   -2.6580  -16.7460 C   0  0  0  0  0  0  0  0  0  0  0  0
   -0.9330    1.8840  -19.1480 C   0  0  0  0  0  0  0  0  0  0  0  0
   -0.1370    0.7980  -19.9450 O   0  0  0  0  0  0  0  0  0  0  0  0
   -2.8880   -2.9550  -16.5990 C   0  0  0  0  0  0  0  0  0  0  0  0
   -2.1670   -2.1100  -17.3720 N   0  0  0  0  0  0  0  0  0  0  0  0
   -7.2520   -1.5100  -18.0790 N   0  0  0  0  0  0  0  0  0  0  0  0
   -7.8610   -4.0800  -14.9290 O   0  0  0  0  0  0  0  0  0  0  0  0
   -4.2510   -2.7680  -16.5240 C   0  0  0  0  0  0  0  0  0  0  0  0
   -5.2270   -3.3250  -15.7370 N   0  0  0  0  0  0  0  0  0  0  0  0
   -6.2550   -1.9850  -17.3360 C   0  0  0  0  0  0  0  0  0  0  0  0
   -7.7480   -3.2290  -15.9380 C   0  0  0  0  0  0  0  0  0  0  0  0
   -0.8500   -2.3550  -17.6450 O   0  0  0  0  0  0  0  0  0  0  0  0
   -1.9380   -0.0650  -18.3980 O   0  0  0  0  0  0  0  0  0  0  0  0
  1 17  2  0
  3 20  1  6
  3 12  1  0
  5  3  1  0
  5  1  1  0
  6 18  1  0
  6 16  2  0
  7  8  1  0
  8 18  2  0
  9  2  1  0
 10  9  1  0
 11 15  1  0
 11  4  2  0
 12 11  1  0
 13  7  2  0
 13 17  1  0
 15  1  1  0
 15 16  1  0
 17  6  1  0
 18 14  1  0
 19 12  1  0
 20  2  1  0
M  END
$$$$

     RDKit          3D

 19 21  0  0  0  0  0  0  0  0999 V2000
   -2.2120   -3.0270  -15.0810 C   0  0  0  0  0  0  0  0  0  0  0  0
   -8.7730   -3.4720  -17.1430 N   0  0  0  0  0  0  0  0  0  0  0  0
   -1.3360   -3.3070  -16.2960 N   0  0  0  0  0  0  0  0  0  0  0  0
   -4.1500   -0.9810  -18.8390 N   0  0  0  0  0  0  0  0  0  0  0  0
   -8.3190   -4.0160  -15.9430 O   0  0  0  0  0  0  0  0  0  0  0  0
   -3.2620   -1.0750  -17.9190 C   0  0  1  0  0  0  0  0  0  0  0  0
   -8.7380   -2.0490  -17.0470 C   0  0  0  0  0  0  0  0  0  0  0  0
   -5.3980   -1.1400  -19.1980 C   0  0  0  0  0  0  0  0  0  0  0  0
   -7.0160   -1.7960  -18.9230 C   0  0  1  0  0  0  0  0  0  0  0  0
   -3.9990   -2.0740  -16.9650 C   0  0  0  0  0  0  0  0  0  0  0  0
   -1.7340   -0.9230  -17.9900 C   0  0  2  0  0  0  0  0  0  0  0  0
   -5.9800   -1.7100  -18.0140 C   0  0  1  0  0  0  0  0  0  0  0  0
   -8.0190   -1.3430  -18.2510 C   0  0  0  0  0  0  0  0  0  0  0  0
   -2.1150    0.2380  -18.8500 C   0  0  0  0  0  0  0  0  0  0  0  0
   -6.3350   -1.1920  -19.9080 N   0  0  0  0  0  0  0  0  0  0  0  0
   -5.4060   -2.0880  -16.8870 C   0  0  0  0  0  0  0  0  0  0  0  0
   -0.9140   -2.1900  -17.3750 C   0  0  0  0  0  0  0  0  0  0  0  0
  -10.0470   -3.9430  -17.4480 C   0  0  0  0  0  0  0  0  0  0  0  0
   -3.5530   -3.0690  -15.6080 C   0  0  0  0  0  0  0  0  0  0  0  0
  2  7  1  0
  2  5  1  0
  3  1  1  0
  6  4  1  6
  6 10  1  0
  8  4  2  0
  8 12  1  0
  9 13  1  1
  9 12  1  0
 10 16  1  0
 10 19  2  0
 11 14  1  6
 11  6  1  0
 11 17  1  0
 12 16  1  6
 13  7  1  0
 15  8  1  0
 15  9  1  0
 17  3  1  0
 18  2  1  0
 19  1  1  0
M  END
$$$$

     RDKit          3D

 20 21  0  0  0  0  0  0  0  0999 V2000
   -9.0870   -3.6510  -16.3080 C   0  0  0  0  0  0  0  0  0  0  0  0
   -8.4150   -2.0290  -18.0560 N   0  0  0  0  0  0  0  0  0  0  0  0
   -3.5530   -1.2310  -17.3770 C   0  0  2  0  0  0  0  0  0  0  0  0
   -3.8250   -0.5670  -19.7830 C   0  0  0  0  0  0  0  0  0  0  0  0
   -3.0310   -3.4420  -15.7340 C   0  0  0  0  0  0  0  0  0  0  0  0
   -5.0560   -0.7590  -17.3740 C   0  0  2  0  0  0  0  0  0  0  0  0
   -4.2720    0.1310  -20.5750 O   0  0  0  0  0  0  0  0  0  0  0  0
   -2.3780   -2.4010  -14.8520 C   0  0  0  0  0  0  0  0  0  0  0  0
   -7.4920   -4.5920  -14.9270 O   0  0  0  0  0  0  0  0  0  0  0  0
   -8.8450   -3.2020  -17.5920 C   0  0  0  0  0  0  0  0  0  0  0  0
   -1.7660   -1.7500  -19.0300 C   0  0  0  0  0  0  0  0  0  0  0  0
   -6.2840   -1.6790  -17.3350 C   0  0  0  0  0  0  0  0  0  0  0  0
   -2.5320   -1.0460  -19.9520 N   0  0  0  0  0  0  0  0  0  0  0  0
   -6.7400   -3.1130  -19.2720 O   0  0  0  0  0  0  0  0  0  0  0  0
   -0.6160   -1.9180  -19.3140 O   0  0  0  0  0  0  0  0  0  0  0  0
   -7.9450   -3.5640  -15.4280 C   0  0  0  0  0  0  0  0  0  0  0  0
   -4.4290   -1.2560  -18.6060 C   0  0  2  0  0  0  0  0  0  0  0  0
   -7.1050   -1.9320  -18.5630 C   0  0  1  0  0  0  0  0  0  0  0  0
   -2.5190   -3.4070  -17.0690 C   0  0  0  0  0  0  0  0  0  0  0  0
   -2.4130   -2.1460  -17.8480 N   0  0  0  0  0  0  0  0  0  0  0  0
  1 16  1  0
  2 10  1  0
  3 20  1  1
  3  6  1  0
  5  8  1  0
  6 12  1  1
  7  4  2  0
 10  1  1  0
 11 20  1  0
 13  4  1  0
 13 11  1  0
 15 11  2  0
 16  9  2  0
 17  4  1  6
 17  3  1  0
 17  6  1  0
 18 14  1  1
 18  2  1  0
 18 12  1  0
 19  5  1  0
 20 19  1  0
M  END
$$$$

     RDKit          3D

 21 23  0  0  0  0  0  0  0  0999 V2000
   -9.2190   -2.8980  -16.7440 O   0  0  0  0  0  0  0  0  0  0  0  0
   -1.5650   -0.2380  -19.8750 C   0  0  0  0  0  0  0  0  0  0  0  0
   -8.1110   -3.9190  -14.7120 N   0  0  0  0  0  0  0  0  0  0  0  0
   -0.9710   -0.0410  -21.1450 O   0  0  0  0  0  0  0  0  0  0  0  0
   -7.3200   -3.2400  -15.5790 C   0  0  0  0  0  0  0  0  0  0  0  0
   -7.9010   -2.7540  -16.6790 C   0  0  0  0  0  0  0  0  0  0  0  0
   -7.2480   -2.0850  -17.7180 C   0  0  0  0  0  0  0  0  0  0  0  0
   -5.9800   -3.1050  -15.4250 C   0  0  0  0  0  0  0  0  0  0  0  0
   -7.9900   -1.5850  -18.7590 O   0  0  0  0  0  0  0  0  0  0  0  0
   -5.3300   -2.4910  -16.4270 C   0  0  0  0  0  0  0  0  0  0  0  0
   -4.4970   -1.5480  -18.1630 C   0  0  2  0  0  0  0  0  0  0  0  0
   -0.7170    0.1360  -18.8680 C   0  0  0  0  0  0  0  0  0  0  0  0
   -2.4370   -0.4580  -17.1960 C   0  0  0  0  0  0  0  0  0  0  0  0
   -3.2650   -0.8470  -18.3180 C   0  0  0  0  0  0  0  0  0  0  0  0
   -2.8620   -0.6570  -19.6440 C   0  0  0  0  0  0  0  0  0  0  0  0
   -1.7680   -2.6510  -16.6600 O   0  0  0  0  0  0  0  0  0  0  0  0
   -5.4310   -1.4430  -19.0650 C   0  0  0  0  0  0  0  0  0  0  0  0
   -5.7520   -1.8760  -17.7330 C   0  0  2  0  0  0  0  0  0  0  0  0
   -5.7390   -1.0050  -20.1610 O   0  0  0  0  0  0  0  0  0  0  0  0
   -1.1450    0.0670  -17.4920 C   0  0  0  0  0  0  0  0  0  0  0  0
   -2.3290   -1.4740  -16.1200 C   0  0  0  0  0  0  0  0  0  0  0  0
  1  6  1  0
  2 15  2  0
  2 12  1  0
  4  2  1  0
  5  8  1  0
  5  3  1  0
  6  5  2  0
  7  9  1  0
  7  6  1  0
 10  8  2  0
 11 14  1  1
 11 18  1  0
 12 20  2  0
 13 21  1  0
 14 13  2  0
 15 14  1  0
 16 21  1  0
 17 11  1  0
 17 18  1  0
 18  7  1  1
 18 10  1  0
 19 17  2  0
 20 13  1  0
M  END
$$$$

     RDKit          3D

 20 21  0  0  0  0  0  0  0  0999 V2000
   -2.6160   -2.3470  -17.5640 O   0  0  0  0  0  0  0  0  0  0  0  0
   -4.5830   -2.3720  -15.7660 N   0  0  0  0  0  0  0  0  0  0  0  0
   -3.3020   -3.2760  -16.3630 S   0  0  2  0  0  0  0  0  0  0  0  0
   -2.3110   -3.6350  -15.2350 O   0  0  0  0  0  0  0  0  0  0  0  0
   -2.6650   -0.1340  -17.5790 C   0  0  0  0  0  0  0  0  0  0  0  0
   -3.8350   -4.4960  -17.0630 O   0  0  0  0  0  0  0  0  0  0  0  0
   -2.2910   -0.6830  -20.0290 O   0  0  0  0  0  0  0  0  0  0  0  0
   -1.5580   -0.1940  -18.7320 C   0  0  2  0  0  0  0  0  0  0  0  0
   -8.2910   -1.6180  -17.8470 C   0  0  0  0  0  0  0  0  0  0  0  0
   -0.9380   -1.4640  -18.4280 C   0  0  0  0  0  0  0  0  0  0  0  0
   -1.2070   -2.1660  -17.3100 O   0  0  0  0  0  0  0  0  0  0  0  0
   -9.1190   -3.4870  -16.6870 O   0  0  0  0  0  0  0  0  0  0  0  0
   -7.1020   -1.4510  -18.5590 C   0  0  2  0  0  0  0  0  0  0  0  0
   -4.1530   -0.4730  -17.5950 C   0  0  0  0  0  0  0  0  0  0  0  0
   -7.2160   -2.5250  -19.5750 N   0  0  0  0  0  0  0  0  0  0  0  0
   -8.4090   -2.6040  -16.7480 C   0  0  0  0  0  0  0  0  0  0  0  0
   -5.7470   -2.2540  -16.5230 C   0  0  1  0  0  0  0  0  0  0  0  0
   -6.9750   -3.6950  -15.1090 O   0  0  0  0  0  0  0  0  0  0  0  0
   -5.5860   -1.5230  -17.9620 C   0  0  1  0  0  0  0  0  0  0  0  0
   -6.9100   -3.0060  -16.1150 C   0  0  0  0  0  0  0  0  0  0  0  0
  1 11  1  0
  1  3  1  0
  3  2  1  0
  3  4  1  1
  6  3  1  0
  8  7  1  6
  8 10  1  0
  8  5  1  0
  9 16  1  0
 10 11  1  0
 13 15  1  6
 13 19  1  0
 13  9  1  0
 14  5  1  0
 16 12  2  0
 16 20  1  0
 17 20  1  0
 17  2  1  6
 19 14  1  1
 19 17  1  0
 20 18  2  0
M  END
$$$$

     RDKit          3D

 19 20  0  0  0  0  0  0  0  0999 V2000
   -7.5070   -3.0930  -15.8000 C   0  0  0  0  0  0  0  0  0  0  0  0
   -2.7960   -0.9780  -19.0160 C   0  0  0  0  0  0  0  0  0  0  0  0
   -3.3830   -1.9610  -18.1610 C   0  0  1  0  0  0  0  0  0  0  0  0
   -2.7200   -2.9330  -17.3640 C   0  0  0  0  0  0  0  0  0  0  0  0
   -7.0850   -3.6880  -14.8660 O   0  0  0  0  0  0  0  0  0  0  0  0
   -6.6620   -2.5200  -16.8320 C   0  0  0  0  0  0  0  0  0  0  0  0
   -5.3600   -2.5410  -16.9300 C   0  0  0  0  0  0  0  0  0  0  0  0
   -8.8410   -2.9020  -16.2220 N   0  0  0  0  0  0  0  0  0  0  0  0
   -1.2900   -0.9020  -19.2010 C   0  0  1  0  0  0  0  0  0  0  0  0
   -4.7810   -1.8460  -18.0890 C   0  0  0  0  0  0  0  0  0  0  0  0
   -8.5790   -1.5760  -18.1650 C   0  0  0  0  0  0  0  0  0  0  0  0
   -7.1110   -1.7850  -18.0140 C   0  0  0  0  0  0  0  0  0  0  0  0
   -0.4920   -0.9410  -17.8420 C   0  0  0  0  0  0  0  0  0  0  0  0
   -6.0270   -1.2560  -18.7890 C   0  0  0  0  0  0  0  0  0  0  0  0
   -9.4870   -2.1620  -17.2180 C   0  0  0  0  0  0  0  0  0  0  0  0
   -2.1370   -3.1550  -16.2900 O   0  0  0  0  0  0  0  0  0  0  0  0
   -0.7880   -2.0880  -20.0320 C   0  0  0  0  0  0  0  0  0  0  0  0
   -4.6950   -2.9260  -15.9990 O   0  0  0  0  0  0  0  0  0  0  0  0
   -3.4030   -0.2810  -19.7640 O   0  0  0  0  0  0  0  0  0  0  0  0
  1  5  2  0
  2  3  1  0
  3 10  1  0
  3  4  1  1
  4 16  2  0
  6  1  1  0
  7  6  1  0
  7 18  2  0
  8  1  1  0
  9  2  1  0
  9 13  1  1
 10  7  1  0
 11 12  1  0
 11 15  1  0
 12  6  2  0
 14 10  2  0
 14 12  1  0
 15  8  2  0
 17  9  1  0
 19  2  2  0
M  END
$$$$

     RDKit          3D

 20 20  0  0  0  0  0  0  0  0999 V2000
   -3.5830   -0.8490  -18.9200 C   0  0  0  0  0  0  0  0  0  0  0  0
   -2.7170    0.1300  -18.0700 C   0  0  0  0  0  0  0  0  0  0  0  0
   -9.1760   -1.6480  -17.8160 O   0  0  0  0  0  0  0  0  0  0  0  0
   -1.4480   -2.0290  -15.7910 O   0  0  0  0  0  0  0  0  0  0  0  0
   -9.2620   -4.1990  -16.1700 N   0  0  0  0  0  0  0  0  0  0  0  0
   -6.8160   -1.6530  -18.5830 C   0  0  0  0  0  0  0  0  0  0  0  0
   -7.6010   -4.3460  -14.7010 O   0  0  0  0  0  0  0  0  0  0  0  0
   -0.5060   -0.6220  -19.8870 O   0  0  0  0  0  0  0  0  0  0  0  0
    0.7340   -1.5230  -18.0940 O   0  0  0  0  0  0  0  0  0  0  0  0
   -7.4970   -2.8340  -16.5290 C   0  0  2  0  0  0  0  0  0  0  0  0
   -5.6970   -1.8920  -17.8040 C   0  0  0  0  0  0  0  0  0  0  0  0
   -6.0080   -2.4810  -16.4630 C   0  0  0  0  0  0  0  0  0  0  0  0
   -1.4090   -0.6630  -17.8180 C   0  0  2  0  0  0  0  0  0  0  0  0
   -8.1140   -3.7930  -15.6730 C   0  0  0  0  0  0  0  0  0  0  0  0
   -0.2580   -0.9570  -18.6850 C   0  0  0  0  0  0  0  0  0  0  0  0
   -7.9800   -2.0800  -17.8010 C   0  0  0  0  0  0  0  0  0  0  0  0
   -1.4370   -1.9700  -17.0940 C   0  0  0  0  0  0  0  0  0  0  0  0
   -1.3290   -2.9330  -17.7890 O   0  0  0  0  0  0  0  0  0  0  0  0
   -6.9550   -1.2190  -19.7740 O   0  0  0  0  0  0  0  0  0  0  0  0
   -4.3660   -1.7070  -17.8920 C   0  0  0  0  0  0  0  0  0  0  0  0
  1  2  1  0
  1 20  1  0
 13  2  1  6
  3 16  2  0
  5 14  1  0
  6 11  1  0
  6 16  1  0
  8 15  2  0
 10 12  1  0
 10 14  1  6
 11 12  1  0
 13 17  1  0
 14  7  2  0
 15  9  1  0
 15 13  1  0
 16 10  1  0
 17  4  1  0
 18 17  2  0
 19  6  2  0
 20 11  2  3
M  END
$$$$

     RDKit          3D

 19 19  0  0  0  0  0  0  0  0999 V2000
   -9.2840   -3.0720  -17.7860 O   0  0  0  0  0  0  0  0  0  0  0  0
   -0.7330   -2.4360  -17.5690 C   0  0  0  0  0  0  0  0  0  0  0  0
   -4.3680   -2.6650  -17.0310 C   0  0  0  0  0  0  0  0  0  0  0  0
   -5.5120   -2.7440  -17.8200 N   0  0  0  0  0  0  0  0  0  0  0  0
   -3.1920   -2.3360  -17.6450 C   0  0  0  0  0  0  0  0  0  0  0  0
   -0.6490   -1.6640  -18.6750 O   0  0  0  0  0  0  0  0  0  0  0  0
   -0.6310   -2.4610  -19.7970 C   0  0  0  0  0  0  0  0  0  0  0  0
   -4.5250   -2.8510  -15.6600 C   0  0  0  0  0  0  0  0  0  0  0  0
   -2.0590   -2.3160  -16.8210 C   0  0  0  0  0  0  0  0  0  0  0  0
   -7.5870   -1.6390  -16.9380 C   0  0  1  0  0  0  0  0  0  0  0  0
   -8.3570   -0.5020  -17.3140 O   0  0  0  0  0  0  0  0  0  0  0  0
   -3.3420   -2.7460  -14.8800 C   0  0  0  0  0  0  0  0  0  0  0  0
   -8.4750   -2.8670  -16.9460 C   0  0  0  0  0  0  0  0  0  0  0  0
   -8.3130   -3.5600  -15.9290 O   0  0  0  0  0  0  0  0  0  0  0  0
   -2.0900   -2.5140  -15.4780 C   0  0  0  0  0  0  0  0  0  0  0  0
   -6.3820   -1.6320  -17.8500 C   0  0  2  0  0  0  0  0  0  0  0  0
   -6.8430   -1.6000  -19.3110 C   0  0  0  0  0  0  0  0  0  0  0  0
   -7.0640   -0.5700  -19.8750 O   0  0  0  0  0  0  0  0  0  0  0  0
   -7.0110   -2.9380  -19.7450 N   0  0  0  0  0  0  0  0  0  0  0  0
  1 13  2  0
  2  9  1  0
  3  8  2  0
  4  3  1  0
  5  3  1  0
  5  9  2  0
  6  2  1  0
  7  6  1  0
  8 12  1  0
  9 15  1  0
 10 11  1  6
 13 10  1  0
 13 14  1  0
 15 12  2  0
 16 17  1  0
 16  4  1  6
 16 10  1  0
 18 17  2  0
 19 17  1  0
M  END
$$$$

     RDKit          3D

 17 17  0  0  0  0  0  0  0  0999 V2000
   -8.8740   -4.0150  -16.3490 C   0  0  0  0  0  0  0  0  0  0  0  0
   -2.6410   -3.1440  -14.9730 O   0  0  0  0  0  0  0  0  0  0  0  0
   -6.2860   -1.2950  -17.2260 C   0  0  2  0  0  0  0  0  0  0  0  0
   -4.0130   -1.8140  -19.1400 O   0  0  0  0  0  0  0  0  0  0  0  0
   -7.9510   -2.5720  -18.3020 N   0  0  0  0  0  0  0  0  0  0  0  0
   -4.3400   -3.8070  -15.9700 O   0  0  0  0  0  0  0  0  0  0  0  0
   -4.6490   -1.0590  -17.1340 C   0  0  2  0  0  0  0  0  0  0  0  0
   -6.8370   -2.3860  -16.2140 C   0  0  0  0  0  0  0  0  0  0  0  0
   -6.8580   -1.6790  -18.4620 C   0  0  0  0  0  0  0  0  0  0  0  0
   -4.3070   -0.8610  -18.2780 O   0  0  0  0  0  0  0  0  0  0  0  0
   -8.2940   -2.6800  -16.8340 C   0  0  2  0  0  0  0  0  0  0  0  0
   -1.3630   -2.9970  -18.1620 C   0  0  0  0  0  0  0  0  0  0  0  0
   -3.2960   -2.7700  -15.8820 C   0  0  0  0  0  0  0  0  0  0  0  0
   -6.7070   -1.2470  -19.5290 O   0  0  0  0  0  0  0  0  0  0  0  0
   -3.3620   -1.7680  -16.8280 C   0  0  1  0  0  0  0  0  0  0  0  0
   -2.2350   -1.6790  -17.9410 C   0  0  0  0  0  0  0  0  0  0  0  0
   -9.2620   -1.5070  -16.5120 C   0  0  0  0  0  0  0  0  0  0  0  0
  3  7  1  0
  3  8  1  1
  4 10  1  0
  5 11  1  0
  6 13  2  0
  7 10  1  6
  7 15  1  0
  9  5  1  0
  9  3  1  0
 11 17  1  1
 11  1  1  0
 11  8  1  0
 12 16  1  0
 13  2  1  0
 14  9  2  0
 15 16  1  6
 15 13  1  0
M  END
$$$$

     RDKit          3D

 21 22  0  0  0  0  0  0  0  0999 V2000
   -1.7920   -2.1380  -15.9720 C   0  0  0  0  0  0  0  0  0  0  0  0
   -2.6990   -3.1380  -15.8380 C   0  0  0  0  0  0  0  0  0  0  0  0
   -0.2660    1.3360  -19.1370 C   0  0  0  0  0  0  0  0  0  0  0  0
   -5.2290   -2.9700  -16.5230 N   0  0  0  0  0  0  0  0  0  0  0  0
   -3.3530   -0.5770  -19.7990 C   0  0  2  0  0  0  0  0  0  0  0  0
   -3.4080   -1.6680  -17.3720 C   0  0  1  0  0  0  0  0  0  0  0  0
   -2.5620    0.5810  -19.3910 C   0  0  0  0  0  0  0  0  0  0  0  0
   -7.6930   -3.4440  -15.9160 C   0  0  0  0  0  0  0  0  0  0  0  0
   -2.2050   -1.2100  -17.0150 O   0  0  0  0  0  0  0  0  0  0  0  0
   -4.1500   -1.2550  -18.6080 C   0  0  1  0  0  0  0  0  0  0  0  0
   -8.6510   -4.2310  -16.1150 O   0  0  0  0  0  0  0  0  0  0  0  0
   -3.8960   -2.6450  -16.6380 C   0  0  0  0  0  0  0  0  0  0  0  0
   -9.0800   -0.5830  -17.4980 C   0  0  0  0  0  0  0  0  0  0  0  0
   -8.4580   -1.9060  -17.5870 N   0  0  0  0  0  0  0  0  0  0  0  0
   -2.2770   -1.0140  -20.4830 O   0  0  0  0  0  0  0  0  0  0  0  0
   -6.9710   -3.5290  -14.9640 O   0  0  0  0  0  0  0  0  0  0  0  0
   -1.4820    1.0480  -19.0440 C   0  0  0  0  0  0  0  0  0  0  0  0
   -7.4290   -2.4100  -16.9020 C   0  0  0  0  0  0  0  0  0  0  0  0
   -5.7230   -1.4240  -18.6460 S   0  0  0  0  0  0  0  0  0  0  0  0
   -6.1120   -2.3140  -17.2940 C   0  0  0  0  0  0  0  0  0  0  0  0
  -10.3840   -0.2170  -16.8240 C   0  0  0  0  0  0  0  0  0  0  0  0
  1  2  1  0
  3 17  3  0
  5 15  1  1
  5  7  1  0
  6  9  1  6
  6 12  1  0
  7 17  1  0
  8 16  1  0
  9  1  1  0
 10  5  1  0
 10  6  1  0
 11  8  2  0
 12  4  2  0
 12  2  1  0
 13 21  1  0
 14 13  1  0
 14 18  1  0
 18  8  1  0
 10 19  1  1
 19 20  1  0
 20 18  2  3
 20  4  1  0
M  END
$$$$

     RDKit          3D

 22 23  0  0  0  0  0  0  0  0999 V2000
   -3.0170   -0.1890  -19.2290 O   0  0  0  0  0  0  0  0  0  0  0  0
   -7.3130   -1.8730  -18.8710 C   0  0  0  0  0  0  0  0  0  0  0  0
   -6.7990   -2.7850  -19.4960 O   0  0  0  0  0  0  0  0  0  0  0  0
   -6.9150   -2.7150  -16.5470 C   0  0  2  0  0  0  0  0  0  0  0  0
   -1.1430    1.1730  -18.2920 C   0  0  0  0  0  0  0  0  0  0  0  0
   -0.7950   -1.8500  -20.0670 C   0  0  0  0  0  0  0  0  0  0  0  0
   -9.0200   -2.0920  -16.9690 C   0  0  0  0  0  0  0  0  0  0  0  0
   -0.5850   -0.5750  -19.6440 O   0  0  0  0  0  0  0  0  0  0  0  0
   -5.3660   -2.7120  -16.7460 C   0  0  0  0  0  0  0  0  0  0  0  0
   -7.4340   -4.3040  -14.8350 O   0  0  0  0  0  0  0  0  0  0  0  0
   -3.1280   -0.5320  -18.0740 C   0  0  2  0  0  0  0  0  0  0  0  0
   -4.4820   -3.5680  -15.9490 N   0  0  0  0  0  0  0  0  0  0  0  0
   -1.5190   -0.5050  -18.5300 C   0  0  2  0  0  0  0  0  0  0  0  0
   -1.4570    0.1770  -17.0730 C   0  0  0  0  0  0  0  0  0  0  0  0
   -4.7430   -1.5850  -17.4960 C   0  0  0  0  0  0  0  0  0  0  0  0
   -3.2010   -3.0800  -15.6410 C   0  0  0  0  0  0  0  0  0  0  0  0
   -7.7570   -3.3950  -15.4870 C   0  0  0  0  0  0  0  0  0  0  0  0
   -7.7320   -2.1210  -17.5090 C   0  0  2  0  0  0  0  0  0  0  0  0
   -2.6110   -1.8680  -16.2740 C   0  0  0  0  0  0  0  0  0  0  0  0
   -8.8490   -2.5170  -15.6170 N   0  0  0  0  0  0  0  0  0  0  0  0
   -3.3440   -1.4050  -17.3130 C   0  0  2  0  0  0  0  0  0  0  0  0
   -7.6560   -0.8080  -19.3220 O   0  0  0  0  0  0  0  0  0  0  0  0
  3  2  2  0
  4  9  1  6
  4 17  1  0
  5 14  1  0
  6  8  1  0
  7 20  1  0
  8 13  1  0
  9 12  1  0
 11  1  1  6
 12 16  2  0
 13 11  1  0
 13 14  1  6
 15 21  1  0
 15  9  2  0
 17 10  2  0
 18  2  1  6
 18  7  1  0
 18  4  1  0
 19 16  1  0
 20 17  1  0
 21 11  1  0
 21 19  1  1
 22  2  1  0
M  END
$$$$

     RDKit          3D

 22 24  0  0  0  0  0  0  0  0999 V2000
   -2.7470   -0.4600  -19.5460 C   0  0  0  0  0  0  0  0  0  0  0  0
   -4.6460   -1.0730  -18.4500 C   0  0  1  0  0  0  0  0  0  0  0  0
   -3.9010   -0.9820  -17.3040 C   0  0  2  0  0  0  0  0  0  0  0  0
   -6.9310   -1.2200  -19.4430 N   0  0  0  0  0  0  0  0  0  0  0  0
   -8.8690   -1.7030  -17.0400 C   0  0  0  0  0  0  0  0  0  0  0  0
   -6.5170   -1.7550  -17.5830 C   0  0  0  0  0  0  0  0  0  0  0  0
   -8.1550   -1.3850  -18.9380 N   0  0  0  0  0  0  0  0  0  0  0  0
   -2.6180   -0.9210  -18.0160 C   0  0  1  0  0  0  0  0  0  0  0  0
   -6.2110   -1.3360  -18.6210 C   0  0  0  0  0  0  0  0  0  0  0  0
   -6.9340   -3.5100  -15.7120 C   0  0  0  0  0  0  0  0  0  0  0  0
   -8.1800   -4.2650  -15.5300 O   0  0  0  0  0  0  0  0  0  0  0  0
   -6.2780   -3.8130  -14.7450 O   0  0  0  0  0  0  0  0  0  0  0  0
   -1.7150   -2.9840  -17.0330 C   0  0  0  0  0  0  0  0  0  0  0  0
   -4.0620   -2.0000  -16.3070 C   0  0  0  0  0  0  0  0  0  0  0  0
   -4.2850   -0.8090  -19.5290 C   0  0  0  0  0  0  0  0  0  0  0  0
  -10.0650   -2.1910  -17.7400 O   0  0  0  0  0  0  0  0  0  0  0  0
   -3.1490   -3.2010  -16.3630 C   0  0  0  0  0  0  0  0  0  0  0  0
   -6.2600   -2.7910  -16.6160 N   0  0  0  0  0  0  0  0  0  0  0  0
   -0.4310   -1.8620  -19.0100 C   0  0  0  0  0  0  0  0  0  0  0  0
   -1.8630   -2.1520  -18.3970 C   0  0  2  0  0  0  0  0  0  0  0  0
   -0.6140   -1.7070  -20.4810 C   0  0  0  0  0  0  0  0  0  0  0  0
   -7.8320   -1.6940  -17.8190 C   0  0  0  0  0  0  0  0  0  0  0  0
  1 15  1  0
  2 15  1  0
  2  3  1  0
  3 14  1  1
  4  7  2  0
  6 18  1  0
  7 22  1  0
  8  1  1  6
  8  3  1  0
  9  4  1  0
  2  9  1  1
  9  6  1  0
 10 11  2  0
 10 12  1  0
 13 17  1  0
 16  5  1  0
 17 14  1  0
 18 10  1  0
 20 19  1  1
 20  8  1  0
 20 13  1  0
 21 19  1  0
 22  6  2  0
 22  5  1  0
M  END
$$$$

     RDKit          3D

 19 19  0  0  0  0  0  0  0  0999 V2000
   -1.2950   -3.0780  -17.2330 O   0  0  0  0  0  0  0  0  0  0  0  0
   -2.8140   -0.7950  -19.2880 C   0  0  0  0  0  0  0  0  0  0  0  0
   -2.3810   -2.2950  -17.0140 S   0  0  2  0  0  0  0  0  0  0  0  0
   -9.1270   -2.1120  -16.6140 N   0  0  0  0  0  0  0  0  0  0  0  0
   -3.0930   -3.3480  -16.2570 O   0  0  0  0  0  0  0  0  0  0  0  0
   -8.7410   -0.4000  -18.0710 O   0  0  0  0  0  0  0  0  0  0  0  0
   -3.3430   -1.8590  -18.4210 C   0  0  1  0  0  0  0  0  0  0  0  0
   -3.5650   -0.7070  -20.5600 O   0  0  0  0  0  0  0  0  0  0  0  0
   -2.0050   -1.3360  -16.0520 O   0  0  0  0  0  0  0  0  0  0  0  0
   -6.7360   -3.8280  -15.1320 O   0  0  0  0  0  0  0  0  0  0  0  0
   -6.0170   -1.4660  -19.2680 S   0  0  0  0  0  0  0  0  0  0  0  0
   -5.3080   -2.1250  -16.9390 N   0  0  0  0  0  0  0  0  0  0  0  0
   -7.0340   -2.5810  -18.3950 C   0  0  0  0  0  0  0  0  0  0  0  0
   -9.3840   -1.0540  -17.2350 C   0  0  0  0  0  0  0  0  0  0  0  0
  -10.6910   -0.2700  -16.7840 C   0  0  0  0  0  0  0  0  0  0  0  0
   -4.7860   -1.5880  -18.1050 C   0  0  1  0  0  0  0  0  0  0  0  0
   -6.5320   -2.5870  -17.0080 C   0  0  0  0  0  0  0  0  0  0  0  0
   -8.7240   -3.4210  -16.3060 C   0  0  0  0  0  0  0  0  0  0  0  0
   -7.2660   -3.2670  -16.1060 C   0  0  0  0  0  0  0  0  0  0  0  0
  3  1  1  6
  3  5  1  0
  3  9  1  0
  4 18  1  0
  6 14  2  0
  7  2  1  1
  7  3  1  0
  8  2  1  0
 11 13  1  0
 16 11  1  6
 13 17  1  0
 14 15  1  0
 14  4  1  0
 16  7  1  0
 16 12  1  0
 17 12  2  0
 17 19  1  0
 18 19  1  0
 19 10  2  0
M  END
$$$$

     RDKit          3D

 21 24  0  0  0  0  0  0  0  0999 V2000
   -8.4260   -3.0480  -15.6420 C   0  0  0  0  0  0  0  0  0  0  0  0
   -2.1910   -3.7690  -15.9300 O   0  0  0  0  0  0  0  0  0  0  0  0
   -2.5360   -0.5520  -18.5050 C   0  0  1  0  0  0  0  0  0  0  0  0
   -0.8420    0.7540  -19.2660 C   0  0  0  0  0  0  0  0  0  0  0  0
   -2.3610    0.4020  -19.5200 C   0  0  0  0  0  0  0  0  0  0  0  0
   -1.5030   -1.9980  -17.1110 N   0  0  0  0  0  0  0  0  0  0  0  0
   -6.6440   -3.1540  -19.3470 O   0  0  0  0  0  0  0  0  0  0  0  0
   -7.2460   -3.5490  -15.0500 C   0  0  0  0  0  0  0  0  0  0  0  0
   -3.9060   -2.5510  -16.7700 C   0  0  0  0  0  0  0  0  0  0  0  0
   -2.5230   -2.8890  -16.6370 C   0  0  0  0  0  0  0  0  0  0  0  0
   -8.2850   -2.0990  -16.6450 C   0  0  0  0  0  0  0  0  0  0  0  0
   -6.2700   -3.0770  -15.9050 C   0  0  0  0  0  0  0  0  0  0  0  0
   -4.5710   -1.6630  -17.5750 C   0  0  0  0  0  0  0  0  0  0  0  0
   -0.6930   -0.0970  -18.4510 C   0  0  0  0  0  0  0  0  0  0  0  0
   -6.6760   -2.1160  -18.9380 C   0  0  0  0  0  0  0  0  0  0  0  0
   -4.8540   -3.3220  -15.9100 C   0  0  0  0  0  0  0  0  0  0  0  0
   -5.9900   -1.5390  -17.7490 C   0  0  0  0  0  0  0  0  0  0  0  0
   -3.7240   -0.7720  -18.2790 N   0  0  0  0  0  0  0  0  0  0  0  0
   -6.8050   -2.2440  -16.8120 C   0  0  2  0  0  0  0  0  0  0  0  0
   -1.5490   -1.2800  -18.4130 C   0  0  2  0  0  0  0  0  0  0  0  0
   -7.0680   -1.1440  -19.7710 O   0  0  0  0  0  0  0  0  0  0  0  0
  1  8  1  0
  3  5  1  6
  3 20  1  0
  3 18  1  0
  4 14  1  0
  5  4  1  0
  6 10  1  0
  7 15  1  0
  9 10  1  0
  9 16  2  0
 10  2  2  0
 11  1  2  0
 12  8  2  0
 13  9  1  0
 15 17  1  0
 16 12  1  0
 17 13  2  0
 17 19  1  0
 18 13  1  0
 19 11  1  1
 19 12  1  0
 20 14  1  1
 20  6  1  0
 21 15  2  0
M  END
$$$$

     RDKit          3D

 22 25  0  0  0  0  0  0  0  0999 V2000
   -7.8180   -3.7500  -15.2180 O   0  0  0  0  0  0  0  0  0  0  0  0
    0.3680   -1.4280  -21.3020 F   0  0  0  0  0  0  0  0  0  0  0  0
   -3.6370   -2.8940  -15.4340 C   0  0  0  0  0  0  0  0  0  0  0  0
   -5.8140   -2.0410  -17.7030 C   0  0  0  0  0  0  0  0  0  0  0  0
   -9.8080   -2.7210  -16.8410 O   0  0  0  0  0  0  0  0  0  0  0  0
   -8.1330   -1.7980  -18.3140 C   0  0  0  0  0  0  0  0  0  0  0  0
   -5.0610   -2.8850  -15.4390 C   0  0  0  0  0  0  0  0  0  0  0  0
   -7.4380   -2.9530  -16.2000 C   0  0  0  0  0  0  0  0  0  0  0  0
   -3.0670   -3.4330  -14.4480 O   0  0  0  0  0  0  0  0  0  0  0  0
   -8.5080   -2.4600  -17.0790 C   0  0  0  0  0  0  0  0  0  0  0  0
   -1.4140   -2.1390  -18.2030 C   0  0  0  0  0  0  0  0  0  0  0  0
   -6.8590   -1.7990  -18.6160 C   0  0  0  0  0  0  0  0  0  0  0  0
   -3.4590   -1.5130  -17.4210 C   0  0  1  0  0  0  0  0  0  0  0  0
   -4.6340   -1.6120  -18.1700 N   0  0  0  0  0  0  0  0  0  0  0  0
   -2.9400   -2.5270  -16.5060 N   0  0  0  0  0  0  0  0  0  0  0  0
   -0.5500   -2.3800  -19.1650 C   0  0  0  0  0  0  0  0  0  0  0  0
   -2.4590   -0.3380  -19.2510 C   0  0  0  0  0  0  0  0  0  0  0  0
   -2.4630   -1.3320  -18.3480 C   0  0  0  0  0  0  0  0  0  0  0  0
   -1.4890   -2.9320  -16.8940 C   0  0  0  0  0  0  0  0  0  0  0  0
   -1.3750   -0.2560  -20.1030 C   0  0  0  0  0  0  0  0  0  0  0  0
   -6.0190   -2.6260  -16.4450 C   0  0  0  0  0  0  0  0  0  0  0  0
   -0.4820   -1.3310  -20.1910 C   0  0  0  0  0  0  0  0  0  0  0  0
  2 22  1  0
  3  9  2  0
  4 21  2  0
  6 10  1  0
  7  3  1  0
  8  1  1  0
 10  5  1  0
 10  8  2  0
 11 19  2  0
 12  6  2  0
 12  4  1  0
 13 18  1  0
 13 15  1  0
 14  4  1  0
 13 14  1  6
 15  3  1  0
 16 11  1  0
 17 18  2  0
 18 11  1  0
 19 15  1  0
 20 17  1  0
 21  8  1  0
 21  7  1  0
 22 20  2  0
 22 16  1  0
M  END
$$$$

     RDKit          3D

 24 26  0  0  0  0  0  0  0  0999 V2000
   -4.0870   -3.6750  -17.5690 F   0  0  0  0  0  0  0  0  0  0  0  0
   -0.9270   -0.2520  -18.6240 C   0  0  1  0  0  0  0  0  0  0  0  0
   -4.1750   -1.5430  -16.7380 C   0  0  2  0  0  0  0  0  0  0  0  0
   -2.3640   -2.7190  -15.8830 C   0  0  0  0  0  0  0  0  0  0  0  0
   -1.8580   -1.2780  -18.1030 C   0  0  1  0  0  0  0  0  0  0  0  0
   -6.4540   -1.2810  -17.7220 C   0  0  0  0  0  0  0  0  0  0  0  0
   -1.7520   -3.6430  -15.2900 O   0  0  0  0  0  0  0  0  0  0  0  0
   -5.7550   -3.3320  -14.9670 O   0  0  0  0  0  0  0  0  0  0  0  0
   -3.6030   -2.9880  -16.5120 C   0  0  2  0  0  0  0  0  0  0  0  0
   -9.1130   -0.8630  -18.0030 F   0  0  0  0  0  0  0  0  0  0  0  0
   -7.7630   -3.2210  -16.1540 C   0  0  1  0  0  0  0  0  0  0  0  0
   -5.6860   -2.0590  -16.8450 N   0  0  0  0  0  0  0  0  0  0  0  0
   -6.3410   -2.9050  -15.9680 C   0  0  0  0  0  0  0  0  0  0  0  0
   -8.2630   -4.2330  -15.3560 O   0  0  0  0  0  0  0  0  0  0  0  0
   -9.7990   -2.6960  -16.8950 F   0  0  0  0  0  0  0  0  0  0  0  0
   -2.7110    0.4190  -20.1780 C   0  0  0  0  0  0  0  0  0  0  0  0
   -2.6850   -0.8170  -16.8990 C   0  0  2  0  0  0  0  0  0  0  0  0
   -1.9530   -1.4660  -15.9060 N   0  0  0  0  0  0  0  0  0  0  0  0
   -3.4120   -0.7900  -19.9030 C   0  0  0  0  0  0  0  0  0  0  0  0
   -8.5400   -2.4560  -16.9700 C   0  0  2  0  0  0  0  0  0  0  0  0
   -1.4980    0.7520  -19.6020 C   0  0  0  0  0  0  0  0  0  0  0  0
   -2.8890   -1.7490  -19.0950 O   0  0  0  0  0  0  0  0  0  0  0  0
   -7.8440   -1.6150  -17.8520 C   0  0  2  0  0  0  0  0  0  0  0  0
   -0.6860    0.7130  -17.3760 O   0  0  0  0  0  0  0  0  0  0  0  0
  2  5  1  0
  2 24  1  1
  3 12  1  6
  3  9  1  0
  4  7  2  0
  5 22  1  6
  5 17  1  0
  6 12  1  0
  9  1  1  6
  9  4  1  0
 11 13  1  0
 11 14  1  1
 12 13  1  0
 13  8  2  0
 16 19  2  0
 16 21  1  0
 17  3  1  0
 17 18  1  1
 18  4  1  0
 19 22  1  0
 20 15  1  6
 20 11  1  0
 21  2  1  0
 23 10  1  1
 23  6  1  0
 23 20  1  0
M  END
$$$$

     RDKit          3D

 20 22  0  0  0  0  0  0  0  0999 V2000
   -2.2280   -1.9410  -16.1000 N   0  0  0  0  0  0  0  0  0  0  0  0
   -1.8510   -1.6570  -17.4630 C   0  0  2  0  0  0  0  0  0  0  0  0
   -2.7730   -1.2530  -18.3590 C   0  0  0  0  0  0  0  0  0  0  0  0
   -4.1250   -1.5100  -18.1150 C   0  0  0  0  0  0  0  0  0  0  0  0
   -0.4880   -2.1260  -17.8110 C   0  0  0  0  0  0  0  0  0  0  0  0
   -6.6220   -2.3410  -17.6980 C   0  0  0  0  0  0  0  0  0  0  0  0
   -3.3670   -0.2760  -20.4930 C   0  0  0  0  0  0  0  0  0  0  0  0
   -4.7370   -0.5610  -20.2500 C   0  0  0  0  0  0  0  0  0  0  0  0
   -5.0300   -1.2500  -19.0730 C   0  0  0  0  0  0  0  0  0  0  0  0
   -9.2920   -1.9310  -16.5640 C   0  0  0  0  0  0  0  0  0  0  0  0
   -3.5210   -2.3120  -15.8780 C   0  0  0  0  0  0  0  0  0  0  0  0
   -8.6920   -3.2920  -16.6790 C   0  0  2  0  0  0  0  0  0  0  0  0
   -5.7110   -2.5660  -16.7300 N   0  0  0  0  0  0  0  0  0  0  0  0
   -7.7850   -3.0760  -17.7610 O   0  0  0  0  0  0  0  0  0  0  0  0
   -2.4220   -0.6380  -19.5470 C   0  0  0  0  0  0  0  0  0  0  0  0
   -6.3150   -1.6010  -18.7510 C   0  0  0  0  0  0  0  0  0  0  0  0
   -3.7840   -2.7340  -14.7880 O   0  0  0  0  0  0  0  0  0  0  0  0
   -9.6280   -4.3750  -17.0390 C   0  0  0  0  0  0  0  0  0  0  0  0
   -4.4540   -2.0870  -16.8970 C   0  0  2  0  0  0  0  0  0  0  0  0
   -7.9400   -3.8110  -15.4720 N   0  0  0  0  0  0  0  0  0  0  0  0
  1 11  1  0
  2  5  1  6
  2  1  1  0
  3  4  2  0
  3  2  1  0
  6 13  2  0
  7  8  1  0
  7 15  2  0
  8  9  2  0
  9 16  1  0
  9  4  1  0
 11 17  2  0
 12 10  1  1
 12 20  1  0
 14  6  1  0
 14 12  1  0
 15  3  1  0
 16  6  1  0
 18 12  1  0
 19  4  1  0
 19 13  1  6
 19 11  1  0
M  END
$$$$

     RDKit          3D

 21 23  0  0  0  0  0  0  0  0999 V2000
   -6.8980   -2.5070  -16.6080 N   0  0  0  0  0  0  0  0  0  0  0  0
   -3.0920   -1.1560  -19.2780 C   0  0  0  0  0  0  0  0  0  0  0  0
   -1.1910   -1.2230  -17.2360 C   0  0  0  0  0  0  0  0  0  0  0  0
   -8.2340   -2.1030  -18.5190 F   0  0  0  0  0  0  0  0  0  0  0  0
   -8.7110   -0.1510  -17.7030 F   0  0  0  0  0  0  0  0  0  0  0  0
   -8.0370   -1.9270  -16.2690 C   0  0  2  0  0  0  0  0  0  0  0  0
   -4.5530   -2.0220  -17.3380 C   0  0  0  0  0  0  0  0  0  0  0  0
  -10.0940   -1.6950  -17.3150 F   0  0  0  0  0  0  0  0  0  0  0  0
   -1.2560   -1.8080  -15.9910 N   0  0  0  0  0  0  0  0  0  0  0  0
   -5.4520   -2.7520  -16.2700 C   0  0  0  0  0  0  0  0  0  0  0  0
   -7.3310   -4.0320  -14.9050 O   0  0  0  0  0  0  0  0  0  0  0  0
   -8.8700   -4.1280  -16.7370 O   0  0  0  0  0  0  0  0  0  0  0  0
   -3.1760   -1.8320  -16.9830 C   0  0  0  0  0  0  0  0  0  0  0  0
   -7.9200   -3.3790  -16.0800 C   0  0  2  0  0  0  0  0  0  0  0  0
   -4.8610   -1.5040  -18.9920 S   0  0  0  0  0  0  0  0  0  0  0  0
    0.0970   -0.6040  -17.6690 C   0  0  1  0  0  0  0  0  0  0  0  0
    0.1070    0.9080  -17.6080 C   0  0  0  0  0  0  0  0  0  0  0  0
   -2.5480   -2.2880  -15.8420 N   0  0  0  0  0  0  0  0  0  0  0  0
    1.1450   -1.2220  -16.9170 O   0  0  0  0  0  0  0  0  0  0  0  0
   -8.8070   -1.4680  -17.5430 C   0  0  2  0  0  0  0  0  0  0  0  0
   -2.4240   -1.2890  -17.9150 C   0  0  0  0  0  0  0  0  0  0  0  0
  1 10  1  0
  6  1  1  6
  1 14  1  0
  2 15  1  0
  2 21  1  0
  3  9  1  0
 20  4  1  6
  5 20  1  0
  6 20  1  0
  6 14  1  0
  7 13  2  0
  7 10  1  0
  9 18  2  0
 14 12  1  6
 13 18  1  0
 14 11  1  0
 15  7  1  0
 16 17  1  1
 16  3  1  0
 16 19  1  0
 20  8  1  0
 21  3  2  0
 21 13  1  0
M  END
$$$$

     RDKit          3D

 16 18  0  0  0  0  0  0  0  0999 V2000
   -7.8340   -1.7560  -17.8630 S   0  0  0  0  0  0  0  0  0  0  0  0
   -4.9710   -0.9280  -18.6650 O   0  0  0  0  0  0  0  0  0  0  0  0
   -5.3310   -3.4620  -15.4360 O   0  0  0  0  0  0  0  0  0  0  0  0
   -7.7170   -3.0590  -15.6730 N   0  0  0  0  0  0  0  0  0  0  0  0
   -3.0840   -1.4220  -20.0170 O   0  0  0  0  0  0  0  0  0  0  0  0
   -6.2900   -2.3770  -17.1780 C   0  0  1  0  0  0  0  0  0  0  0  0
   -2.7580   -0.4800  -17.9670 C   0  0  2  0  0  0  0  0  0  0  0  0
   -8.6660   -2.6120  -16.6610 C   0  0  0  0  0  0  0  0  0  0  0  0
   -1.9030   -2.7320  -18.0120 O   0  0  0  0  0  0  0  0  0  0  0  0
   -3.6320   -0.5320  -19.1450 C   0  0  2  0  0  0  0  0  0  0  0  0
   -6.3030   -3.0470  -16.0160 C   0  0  0  0  0  0  0  0  0  0  0  0
   -1.5380    0.0630  -18.3160 O   0  0  0  0  0  0  0  0  0  0  0  0
   -4.0020   -3.3870  -16.1710 C   0  0  0  0  0  0  0  0  0  0  0  0
   -5.1210   -2.1620  -18.0590 C   0  0  2  0  0  0  0  0  0  0  0  0
   -2.7810   -1.9410  -17.6620 C   0  0  0  0  0  0  0  0  0  0  0  0
   -4.0680   -2.2470  -17.0850 C   0  0  2  0  0  0  0  0  0  0  0  0
  1  8  1  0
  6  1  1  6
  6 11  1  0
  7 12  1  6
  7 15  1  0
  8  4  1  0
  9 15  2  0
 10  5  1  6
 10  2  1  0
 10  7  1  0
 11  4  2  0
 11  3  1  0
 13  3  1  0
 14  2  1  1
 14  6  1  0
 14 16  1  0
 15 16  1  0
 16 13  1  6
M  END
$$$$

     RDKit          3D

 19 21  0  0  0  0  0  0  0  0999 V2000
   -3.5580   -1.8100  -17.9650 C   0  0  0  0  0  0  0  0  0  0  0  0
   -2.4180   -1.2970  -18.7690 C   0  0  2  0  0  0  0  0  0  0  0  0
   -7.0780   -3.1890  -15.9420 C   0  0  0  0  0  0  0  0  0  0  0  0
   -1.5750   -2.5470  -18.9580 O   0  0  0  0  0  0  0  0  0  0  0  0
   -5.8500   -2.7930  -16.5230 C   0  0  0  0  0  0  0  0  0  0  0  0
   -7.1940   -1.8700  -18.2730 C   0  0  2  0  0  0  0  0  0  0  0  0
   -1.4700   -0.3670  -18.0760 C   0  0  0  0  0  0  0  0  0  0  0  0
   -7.1980   -3.8110  -14.8960 O   0  0  0  0  0  0  0  0  0  0  0  0
   -3.3400   -2.3840  -16.6700 C   0  0  0  0  0  0  0  0  0  0  0  0
   -8.3040   -2.8780  -16.4350 N   0  0  0  0  0  0  0  0  0  0  0  0
   -4.7910   -1.7490  -18.5560 C   0  0  0  0  0  0  0  0  0  0  0  0
   -7.0250   -1.1620  -19.8970 Cl  0  0  0  0  0  0  0  0  0  0  0  0
   -3.4730   -0.0180  -20.5770 O   0  0  0  0  0  0  0  0  0  0  0  0
   -5.9270   -2.1590  -17.7930 C   0  0  0  0  0  0  0  0  0  0  0  0
   -4.5690   -2.8740  -15.9470 C   0  0  0  0  0  0  0  0  0  0  0  0
   -0.8650    0.3940  -19.2200 C   0  0  0  0  0  0  0  0  0  0  0  0
   -1.0790   -0.3430  -20.4620 C   0  0  0  0  0  0  0  0  0  0  0  0
   -2.4650   -0.9640  -20.2140 C   0  0  1  0  0  0  0  0  0  0  0  0
   -8.2470   -2.2770  -17.5760 C   0  0  0  0  0  0  0  0  0  0  0  0
  1  9  2  0
  2  4  1  6
  2  7  1  0
  2  1  1  0
  3  8  2  0
  5 15  2  0
  5  3  1  0
  6 12  1  6
  6 14  1  0
  6 19  1  0
  9 15  1  0
 10  3  1  0
 11  1  1  0
 11 14  2  0
 14  5  1  0
 16  7  1  0
 17 18  1  0
 17 16  1  0
 18 13  1  1
 18  2  1  0
 19 10  2  0
M  END
$$$$

     RDKit          3D

 20 23  0  0  0  0  0  0  0  0999 V2000
   -4.4920   -1.5190  -18.1890 N   0  0  0  0  0  0  0  0  0  0  0  0
   -4.7050   -2.1580  -17.4180 C   0  0  2  0  0  0  0  0  0  0  0  0
   -8.6780   -2.2970  -16.9710 C   0  0  0  0  0  0  0  0  0  0  0  0
   -3.0980   -2.5140  -16.1470 S   0  0  0  0  0  0  0  0  0  0  0  0
   -5.5250   -1.6770  -18.5040 C   0  0  0  0  0  0  0  0  0  0  0  0
   -3.4050   -0.2570  -18.5240 C   0  0  2  0  0  0  0  0  0  0  0  0
   -8.1980   -2.8140  -14.5400 O   0  0  0  0  0  0  0  0  0  0  0  0
   -7.4190   -4.5360  -15.0480 O   0  0  0  0  0  0  0  0  0  0  0  0
   -3.4040   -0.3190  -19.9450 C   0  0  0  0  0  0  0  0  0  0  0  0
   -2.0360   -2.1270  -17.4380 C   0  0  1  0  0  0  0  0  0  0  0  0
   -1.1840   -0.3140  -18.8450 C   0  0  0  0  0  0  0  0  0  0  0  0
   -5.2020   -2.7740  -16.4040 C   0  0  0  0  0  0  0  0  0  0  0  0
   -2.1470   -0.7050  -17.7420 C   0  0  1  0  0  0  0  0  0  0  0  0
   -6.1590   -1.2160  -19.4500 O   0  0  0  0  0  0  0  0  0  0  0  0
   -7.9720   -1.6120  -17.9490 O   0  0  0  0  0  0  0  0  0  0  0  0
   -7.3640   -2.1750  -17.2560 C   0  0  0  0  0  0  0  0  0  0  0  0
   -1.8080   -0.0410  -20.0370 C   0  0  0  0  0  0  0  0  0  0  0  0
   -0.7160   -2.3900  -16.7610 C   0  0  0  0  0  0  0  0  0  0  0  0
   -7.4400   -3.3700  -15.3780 C   0  0  0  0  0  0  0  0  0  0  0  0
   -6.6660   -2.8760  -16.3390 C   0  0  0  0  0  0  0  0  0  0  0  0
  1  2  1  0
  2 12  1  0
  2  4  1  6
  5  1  1  0
  5  2  1  0
  6  9  1  6
  6  1  1  0
  6 13  1  0
 10 18  1  1
 10  4  1  0
 12 20  2  3
 13 11  1  6
 13 10  1  0
 14  5  2  0
 15 16  1  0
 15  3  1  0
 16  3  1  0
 16 20  1  0
 17  9  1  0
 17 11  1  0
 19  8  2  0
 19  7  1  0
 20 19  1  0
M  END
$$$$

     RDKit          3D

 22 27  0  0  0  0  0  0  0  0999 V2000
   -0.9610   -0.9750  -18.7470 C   0  0  1  0  0  0  0  0  0  0  0  0
   -7.2720   -3.5390  -15.7280 C   0  0  0  0  0  0  0  0  0  0  0  0
   -6.0230   -2.9800  -15.7520 N   0  0  0  0  0  0  0  0  0  0  0  0
   -2.8590   -3.8840  -15.6210 O   0  0  0  0  0  0  0  0  0  0  0  0
   -9.2410   -3.3090  -17.0720 C   0  0  0  0  0  0  0  0  0  0  0  0
   -5.6390   -1.0840  -18.8070 C   0  0  0  0  0  0  0  0  0  0  0  0
   -7.9940   -2.8240  -16.6980 N   0  0  0  0  0  0  0  0  0  0  0  0
   -1.4110   -2.2630  -17.5710 C   0  0  2  0  0  0  0  0  0  0  0  0
   -2.3130   -0.8740  -18.6360 C   0  0  1  0  0  0  0  0  0  0  0  0
   -3.1670   -3.3610  -16.4850 C   0  0  0  0  0  0  0  0  0  0  0  0
   -2.6070   -2.1060  -17.1450 C   0  0  2  0  0  0  0  0  0  0  0  0
   -3.0190   -0.2950  -19.5870 C   0  0  0  0  0  0  0  0  0  0  0  0
   -7.0280   -1.8220  -18.8080 C   0  0  0  0  0  0  0  0  0  0  0  0
   -1.5560   -0.6010  -17.8180 C   0  0  1  0  0  0  0  0  0  0  0  0
   -7.3800   -1.6690  -17.2900 C   0  0  2  0  0  0  0  0  0  0  0  0
   -7.6480   -4.2660  -14.9920 O   0  0  0  0  0  0  0  0  0  0  0  0
   -2.9820   -0.3920  -17.6420 C   0  0  2  0  0  0  0  0  0  0  0  0
   -5.9900   -1.7820  -16.5710 C   0  0  2  0  0  0  0  0  0  0  0  0
   -5.1160   -1.4340  -17.5120 C   0  0  0  0  0  0  0  0  0  0  0  0
   -0.8200   -1.8720  -18.7570 C   0  0  0  0  0  0  0  0  0  0  0  0
   -3.5770   -4.1810  -17.5910 O   0  0  0  0  0  0  0  0  0  0  0  0
   -3.7730   -1.3480  -17.3300 C   0  0  1  0  0  0  0  0  0  0  0  0
  1 20  1  1
  1  9  1  0
 14  1  1  6
  2 16  2  0
  3  2  1  0
  5  7  1  0
  6 19  1  0
  7  2  1  0
  8 20  1  6
  8 11  1  0
  9 12  1  6
  9 14  1  0
  9 17  1  0
 10  4  1  0
 11 10  1  6
 13  6  1  0
 15 13  1  6
 14 17  1  0
 14  8  1  0
 15  7  1  0
 15 18  1  0
 17 22  1  1
 18  3  1  6
 22 19  1  6
 19 18  1  0
 21 10  2  0
 22 11  1  0
M  END
$$$$

     RDKit          3D

 15 15  0  0  0  0  0  0  0  0999 V2000
   -5.3370   -1.3830  -18.7180 C   0  0  0  0  0  0  0  0  0  0  0  0
   -3.5230   -2.7410  -14.5330 O   0  0  0  0  0  0  0  0  0  0  0  0
   -4.2090   -1.6990  -17.9050 C   0  0  0  0  0  0  0  0  0  0  0  0
   -8.9110   -1.8070  -16.0880 O   0  0  0  0  0  0  0  0  0  0  0  0
   -3.4870   -3.0400  -15.7530 C   0  0  0  0  0  0  0  0  0  0  0  0
   -3.0670   -1.2460  -18.5290 O   0  0  0  0  0  0  0  0  0  0  0  0
   -4.3240   -2.4200  -16.7000 C   0  0  0  0  0  0  0  0  0  0  0  0
   -8.1830   -2.9910  -16.6090 S   0  0  2  0  0  0  0  0  0  0  0  0
   -6.5590   -1.7750  -18.2740 C   0  0  0  0  0  0  0  0  0  0  0  0
   -5.6420   -2.7710  -16.3290 C   0  0  0  0  0  0  0  0  0  0  0  0
   -2.7240   -3.9630  -16.1740 O   0  0  0  0  0  0  0  0  0  0  0  0
   -1.8640   -1.3030  -17.9540 C   0  0  0  0  0  0  0  0  0  0  0  0
   -6.6980   -2.4920  -17.1400 C   0  0  0  0  0  0  0  0  0  0  0  0
   -8.7470   -3.4140  -17.9240 O   0  0  0  0  0  0  0  0  0  0  0  0
   -8.2280   -4.0730  -15.6880 O   0  0  0  0  0  0  0  0  0  0  0  0
  1  9  2  0
  1  3  1  0
  3  7  2  0
  5  2  1  0
  6 12  1  0
  6  3  1  0
  7 10  1  0
  7  5  1  0
  8  4  1  1
  8 15  1  0
  9 13  1  0
 11  5  2  0
 13  8  1  0
 13 10  2  0
 14  8  1  0
M  END
$$$$

     RDKit          3D

 16 15  0  0  0  0  0  0  0  0999 V2000
   -4.8890   -1.2000  -18.6600 C   0  0  0  0  0  0  0  0  0  0  0  0
   -6.2170   -2.2920  -16.9180 C   0  0  2  0  0  0  0  0  0  0  0  0
   -6.9620   -3.0410  -18.1500 N   0  0  0  0  0  0  0  0  0  0  0  0
   -7.0660   -2.0530  -19.1230 C   0  0  0  0  0  0  0  0  0  0  0  0
   -0.6260   -2.7690  -16.3360 C   0  0  0  0  0  0  0  0  0  0  0  0
   -5.0940   -3.0100  -16.2720 C   0  0  0  0  0  0  0  0  0  0  0  0
   -0.0600   -2.7780  -15.3190 O   0  0  0  0  0  0  0  0  0  0  0  0
   -7.3580   -3.1930  -14.7590 O   0  0  0  0  0  0  0  0  0  0  0  0
   -2.6350   -2.9040  -14.7940 C   0  0  0  0  0  0  0  0  0  0  0  0
   -8.8920   -2.4140  -16.2110 O   0  0  0  0  0  0  0  0  0  0  0  0
   -2.0650   -2.7950  -16.1930 C   0  0  0  0  0  0  0  0  0  0  0  0
   -4.5850   -2.1160  -18.2590 N   0  0  0  0  0  0  0  0  0  0  0  0
   -0.4780   -2.8050  -17.4630 O   0  0  0  0  0  0  0  0  0  0  0  0
   -2.8310   -2.7930  -17.4630 N   0  0  0  0  0  0  0  0  0  0  0  0
   -3.9900   -2.6660  -17.3880 C   0  0  0  0  0  0  0  0  0  0  0  0
   -7.6800   -2.6670  -15.7870 C   0  0  0  0  0  0  0  0  0  0  0  0
  1 12  2  0
  2  6  1  1
  2 16  1  0
  3  2  1  0
  4  3  1  0
  5 11  1  0
  5  7  1  0
 10 16  2  0
 11  9  1  0
 12 15  1  0
 13  5  2  0
 14 15  1  0
 14 11  2  3
 15  6  1  0
 16  8  1  0
M  END
$$$$

     RDKit          3D

 21 23  0  0  0  0  0  0  0  0999 V2000
   -1.1880   -1.4050  -16.0470 C   0  0  1  0  0  0  0  0  0  0  0  0
   -1.2790   -1.1690  -18.5200 C   0  0  0  0  0  0  0  0  0  0  0  0
   -0.9990   -1.2560  -20.9430 N   0  0  0  0  0  0  0  0  0  0  0  0
   -6.1240   -2.2720  -16.5550 C   0  0  0  0  0  0  0  0  0  0  0  0
   -7.4930   -0.9920  -19.5040 O   0  0  0  0  0  0  0  0  0  0  0  0
   -1.8280   -1.1550  -19.8090 C   0  0  0  0  0  0  0  0  0  0  0  0
   -0.6510   -0.1440  -15.9250 O   0  0  0  0  0  0  0  0  0  0  0  0
   -6.4930   -3.1580  -15.4920 C   0  0  0  0  0  0  0  0  0  0  0  0
   -2.0280   -1.5170  -17.3400 C   0  0  0  0  0  0  0  0  0  0  0  0
   -8.8450   -3.9150  -16.0750 C   0  0  0  0  0  0  0  0  0  0  0  0
   -0.0630   -2.4250  -16.1100 O   0  0  0  0  0  0  0  0  0  0  0  0
   -4.6930   -1.7920  -16.3850 C   0  0  0  0  0  0  0  0  0  0  0  0
   -3.5220   -1.5640  -17.4200 C   0  0  0  0  0  0  0  0  0  0  0  0
   -6.6090   -1.3760  -18.9280 C   0  0  0  0  0  0  0  0  0  0  0  0
   -3.1620   -1.0800  -19.8730 C   0  0  0  0  0  0  0  0  0  0  0  0
   -5.3770   -1.1160  -19.2170 N   0  0  0  0  0  0  0  0  0  0  0  0
   -9.2550   -3.0280  -17.0510 C   0  0  0  0  0  0  0  0  0  0  0  0
   -4.0640   -1.2100  -18.7690 C   0  0  0  0  0  0  0  0  0  0  0  0
   -7.0560   -1.9400  -17.5970 C   0  0  0  0  0  0  0  0  0  0  0  0
   -8.4600   -2.0420  -17.6260 C   0  0  0  0  0  0  0  0  0  0  0  0
   -7.7030   -3.9260  -15.2710 C   0  0  0  0  0  0  0  0  0  0  0  0
  1  7  1  6
  2  9  2  0
  3  6  1  0
  4 12  1  0
  4  8  1  0
  5 14  2  0
  6  2  1  0
  8 21  1  0
  9  1  1  0
 10 21  2  0
 11  1  1  0
 13  9  1  0
 13 12  1  0
 14 19  1  0
 15  6  2  0
 15 18  1  0
 16 14  1  0
 16 18  1  0
 17 10  1  0
 18 13  2  0
 19  4  2  0
 20 19  1  0
 20 17  2  0
M  END
$$$$

     RDKit          3D

 20 22  0  0  0  0  0  0  0  0999 V2000
   -7.5480   -1.2980  -19.1590 N   0  0  0  0  0  0  0  0  0  0  0  0
   -6.9120   -0.8910  -20.1910 C   0  0  0  0  0  0  0  0  0  0  0  0
   -7.4010   -1.7830  -16.6230 S   0  0  2  0  0  0  0  0  0  0  0  0
   -4.7860   -1.0180  -19.4690 C   0  0  0  0  0  0  0  0  0  0  0  0
   -3.4560   -0.8590  -19.7090 N   0  0  0  0  0  0  0  0  0  0  0  0
   -9.4590   -3.1800  -17.4400 C   0  0  0  0  0  0  0  0  0  0  0  0
   -2.3050   -4.4740  -16.8130 O   0  0  0  0  0  0  0  0  0  0  0  0
   -9.0100   -4.2560  -16.6540 O   0  0  0  0  0  0  0  0  0  0  0  0
   -3.3810   -2.3960  -17.4000 C   0  0  2  0  0  0  0  0  0  0  0  0
   -7.0710   -3.0510  -15.6910 C   0  0  0  0  0  0  0  0  0  0  0  0
   -9.1170   -1.8320  -16.8480 C   0  0  0  0  0  0  0  0  0  0  0  0
   -4.7060   -1.9270  -17.1410 O   0  0  0  0  0  0  0  0  0  0  0  0
   -6.7860   -1.5730  -18.1480 C   0  0  0  0  0  0  0  0  0  0  0  0
   -3.1400   -3.4500  -16.4220 C   0  0  2  0  0  0  0  0  0  0  0  0
   -5.6430   -0.6640  -20.4080 N   0  0  0  0  0  0  0  0  0  0  0  0
   -8.1700   -4.0540  -15.4710 C   0  0  0  0  0  0  0  0  0  0  0  0
   -2.6720   -1.2590  -15.5890 C   0  0  0  0  0  0  0  0  0  0  0  0
   -2.8160   -2.6940  -15.1380 C   0  0  0  0  0  0  0  0  0  0  0  0
   -5.4170   -1.4860  -18.2460 C   0  0  0  0  0  0  0  0  0  0  0  0
   -2.6260   -1.1510  -17.0510 C   0  0  0  0  0  0  0  0  0  0  0  0
  1 13  2  0
  2  1  1  0
  3 10  1  0
  4 19  2  0
  5  4  1  0
  6 11  1  0
  6  8  1  0
  8 16  1  0
  9 12  1  1
  9 20  1  0
  9 14  1  0
 10 16  1  0
 11  3  1  0
  3 13  1  6
 14  7  1  6
 14 18  1  0
 15  2  2  0
 15  4  1  0
 17 18  1  0
 19 13  1  0
 19 12  1  0
 20 17  1  0
M  END
$$$$

     RDKit          3D

 22 24  0  0  0  0  0  0  0  0999 V2000
   -5.8810   -2.4790  -16.6290 C   0  0  0  0  0  0  0  0  0  0  0  0
   -7.4080   -3.5520  -15.2080 C   0  0  0  0  0  0  0  0  0  0  0  0
   -6.1850   -1.1760  -19.9030 F   0  0  0  0  0  0  0  0  0  0  0  0
   -3.5390   -2.3740  -15.8920 C   0  0  0  0  0  0  0  0  0  0  0  0
   -5.5970   -1.7780  -17.7590 C   0  0  0  0  0  0  0  0  0  0  0  0
   -6.5790   -1.6120  -18.6330 C   0  0  1  0  0  0  0  0  0  0  0  0
   -7.3440   -4.8380  -15.1530 O   0  0  0  0  0  0  0  0  0  0  0  0
   -3.7410   -0.4880  -18.6970 C   0  0  0  0  0  0  0  0  0  0  0  0
   -1.7080    1.0370  -19.8880 O   0  0  0  0  0  0  0  0  0  0  0  0
   -4.8600   -2.9090  -15.7180 C   0  0  0  0  0  0  0  0  0  0  0  0
   -4.2490   -1.2540  -17.8510 C   0  0  1  0  0  0  0  0  0  0  0  0
   -2.5500   -0.1380  -18.1860 C   0  0  0  0  0  0  0  0  0  0  0  0
   -2.2810   -0.7880  -17.1330 N   0  0  0  0  0  0  0  0  0  0  0  0
   -8.1250   -2.3310  -17.1290 C   0  0  0  0  0  0  0  0  0  0  0  0
   -7.8830   -1.7430  -18.3230 C   0  0  0  0  0  0  0  0  0  0  0  0
   -0.0900    1.6760  -16.3350 C   0  0  0  0  0  0  0  0  0  0  0  0
   -7.1530   -2.8320  -16.4050 C   0  0  1  0  0  0  0  0  0  0  0  0
   -0.4340    0.8120  -18.1880 O   0  0  0  0  0  0  0  0  0  0  0  0
    0.4580    1.4980  -17.6770 C   0  0  0  0  0  0  0  0  0  0  0  0
   -3.3180   -1.5230  -16.8680 C   0  0  0  0  0  0  0  0  0  0  0  0
   -1.5540    0.5880  -18.9130 C   0  0  0  0  0  0  0  0  0  0  0  0
   -7.6350   -2.8370  -14.2560 O   0  0  0  0  0  0  0  0  0  0  0  0
  1 17  1  0
  1 10  1  0
  2  7  2  0
  2 22  1  0
  4 10  2  0
  5  1  2  0
  6  3  1  1
  6 15  1  0
  6  5  1  0
  8 12  2  0
  9 21  2  0
 11  8  1  1
 11  5  1  0
 11 20  1  0
 12 13  1  0
 13 20  2  0
 14 17  1  0
 15 14  1  0
 17  2  1  1
 18 19  1  0
 19 16  1  0
 20  4  1  0
 21 18  1  0
 21 12  1  0
M  END
$$$$

     RDKit          3D

 20 21  0  0  0  0  0  0  0  0999 V2000
   -3.1510   -3.2660  -16.2240 C   0  0  0  0  0  0  0  0  0  0  0  0
   -8.2800   -3.9060  -16.2330 C   0  0  0  0  0  0  0  0  0  0  0  0
   -8.8290   -0.8690  -17.8560 C   0  0  0  0  0  0  0  0  0  0  0  0
   -7.6780   -1.8360  -17.2510 C   0  0  2  0  0  0  0  0  0  0  0  0
   -2.1180   -2.8640  -15.8730 C   0  0  0  0  0  0  0  0  0  0  0  0
   -0.6940   -1.1370  -16.6680 C   0  0  0  0  0  0  0  0  0  0  0  0
   -6.4620   -1.8320  -18.1400 N   0  0  0  0  0  0  0  0  0  0  0  0
   -3.2180   -1.3640  -17.1650 C   0  0  0  0  0  0  0  0  0  0  0  0
   -6.2110   -1.3190  -19.4160 C   0  0  0  0  0  0  0  0  0  0  0  0
   -5.4810   -2.3070  -17.3020 C   0  0  1  0  0  0  0  0  0  0  0  0
    1.0910   -2.0720  -17.8210 C   0  0  0  0  0  0  0  0  0  0  0  0
   -8.1170   -4.3330  -15.0910 O   0  0  0  0  0  0  0  0  0  0  0  0
   -1.9160   -1.7750  -16.6410 N   0  0  0  0  0  0  0  0  0  0  0  0
   -3.9540   -2.3110  -16.9110 C   0  0  0  0  0  0  0  0  0  0  0  0
   -7.5390   -2.7950  -16.8070 C   0  0  1  0  0  0  0  0  0  0  0  0
   -0.1810   -0.7230  -17.7690 C   0  0  0  0  0  0  0  0  0  0  0  0
    0.6300   -1.8550  -17.7860 C   0  0  0  0  0  0  0  0  0  0  0  0
   -9.1640   -4.4430  -17.0750 O   0  0  0  0  0  0  0  0  0  0  0  0
   -6.2530   -2.8210  -16.4150 N   0  0  0  0  0  0  0  0  0  0  0  0
    0.9170   -2.9790  -17.6390 C   0  0  0  0  0  0  0  0  0  0  0  0
  1  5  1  0
  2 12  1  0
  4  3  1  6
  4 15  1  0
  6 13  1  0
  7 10  1  0
  7  4  1  0
  8 13  1  0
  9  7  1  0
 10 14  1  1
 10 19  1  0
 11 17  1  0
 11 20  1  0
 13  5  1  0
 14  8  1  0
 14  1  1  0
 15 19  1  0
 15  2  1  1
 16  6  1  0
 17 16  1  0
 18  2  2  0
M  END
$$$$

     RDKit          3D

 19 23  0  0  0  0  0  0  0  0999 V2000
   -1.6790   -1.5120  -17.9960 C   0  0  0  0  0  0  0  0  0  0  0  0
   -3.8650   -2.1860  -17.3810 C   0  0  0  0  0  0  0  0  0  0  0  0
   -2.9760   -1.5740  -18.2580 C   0  0  0  0  0  0  0  0  0  0  0  0
   -7.8730   -2.8560  -16.2710 C   0  0  0  0  0  0  0  0  0  0  0  0
   -5.2040   -1.9220  -17.8960 C   0  0  0  0  0  0  0  0  0  0  0  0
   -6.2420   -3.4980  -15.3750 N   0  0  0  0  0  0  0  0  0  0  0  0
   -7.4190   -0.8410  -18.9860 C   0  0  0  0  0  0  0  0  0  0  0  0
   -5.1160   -1.1120  -19.0020 C   0  0  0  0  0  0  0  0  0  0  0  0
   -9.0570   -2.2180  -17.2340 S   0  0  0  0  0  0  0  0  0  0  0  0
   -3.7650   -1.0310  -19.2710 N   0  0  0  0  0  0  0  0  0  0  0  0
   -7.2780   -4.1280  -14.8820 N   0  0  0  0  0  0  0  0  0  0  0  0
   -3.4350   -2.7950  -16.3240 C   0  0  0  0  0  0  0  0  0  0  0  0
   -6.1820   -0.5770  -19.5860 C   0  0  0  0  0  0  0  0  0  0  0  0
   -6.3730   -2.2390  -17.4220 C   0  0  0  0  0  0  0  0  0  0  0  0
   -1.3980   -1.6450  -16.5500 C   0  0  0  0  0  0  0  0  0  0  0  0
   -6.7350   -2.8220  -16.3730 C   0  0  0  0  0  0  0  0  0  0  0  0
   -8.1940   -4.0040  -15.4770 C   0  0  0  0  0  0  0  0  0  0  0  0
   -7.5730   -1.6580  -18.0330 C   0  0  0  0  0  0  0  0  0  0  0  0
   -2.1180   -2.4780  -15.8660 C   0  0  0  0  0  0  0  0  0  0  0  0
  1 15  1  0
  2 12  1  0
  3  1  1  0
  3  2  2  0
  4 17  1  0
  5 14  2  0
  5  2  1  0
  6 11  1  0
  7 18  2  0
  8  5  1  0
  9  4  1  0
 10  8  2  0
 10  3  1  0
 12 19  2  0
 13  8  1  0
 13  7  1  0
 14 16  1  0
 15 19  1  0
 16  4  2  0
 16  6  1  0
 17 11  1  0
 18 14  1  0
 18  9  1  0
M  END
$$$$

     RDKit          3D

 21 24  0  0  0  0  0  0  0  0999 V2000
   -5.1570   -2.5140  -16.5540 C   0  0  1  0  0  0  0  0  0  0  0  0
   -4.5550   -3.4510  -15.9750 N   0  0  0  0  0  0  0  0  0  0  0  0
   -0.4680   -0.8160  -18.7530 C   0  0  0  0  0  0  0  0  0  0  0  0
   -5.3170   -1.3360  -18.7350 C   0  0  0  0  0  0  0  0  0  0  0  0
   -2.7530   -2.7040  -17.0430 C   0  0  2  0  0  0  0  0  0  0  0  0
   -6.5770   -1.7630  -19.0090 C   0  0  0  0  0  0  0  0  0  0  0  0
   -8.5120   -3.1630  -16.1940 N   0  0  0  0  0  0  0  0  0  0  0  0
   -7.0730   -2.4630  -17.8060 C   0  0  1  0  0  0  0  0  0  0  0  0
   -6.9530   -3.4070  -14.8090 O   0  0  0  0  0  0  0  0  0  0  0  0
   -4.5640   -2.0240  -17.7480 C   0  0  0  0  0  0  0  0  0  0  0  0
   -0.4560   -2.3390  -16.7960 C   0  0  0  0  0  0  0  0  0  0  0  0
   -3.3480   -4.0090  -16.7610 C   0  0  0  0  0  0  0  0  0  0  0  0
   -2.2740   -1.9850  -18.1410 C   0  0  0  0  0  0  0  0  0  0  0  0
   -7.2760   -3.0310  -15.7720 C   0  0  0  0  0  0  0  0  0  0  0  0
   -6.4730   -2.3730  -16.7550 C   0  0  1  0  0  0  0  0  0  0  0  0
   -8.5930   -2.8820  -17.7150 C   0  0  0  0  0  0  0  0  0  0  0  0
    1.3900   -1.4080  -20.7130 C   0  0  0  0  0  0  0  0  0  0  0  0
   -1.7180   -2.3260  -15.8980 C   0  0  0  0  0  0  0  0  0  0  0  0
    0.7490   -1.1830  -19.4360 C   0  0  2  0  0  0  0  0  0  0  0  0
   -0.9600   -1.7900  -17.9660 N   0  0  0  0  0  0  0  0  0  0  0  0
   -0.0610   -1.8040  -20.5610 C   0  0  0  0  0  0  0  0  0  0  0  0
  1  2  1  6
  3 20  1  0
  4 10  1  0
  5 12  1  6
  5 18  1  0
  6  4  1  0
  7 14  1  0
  8  6  1  1
  8 16  1  0
  8 15  1  0
 10  1  1  0
 11 18  1  0
 12  2  1  0
 13 20  1  0
 13  5  1  0
 14  9  2  0
 15  1  1  0
 15 14  1  1
 16  7  1  0
 17 21  1  0
 17 19  1  0
 19  3  1  6
 20 11  1  0
 21 19  1  0
M  END
$$$$

     RDKit          3D

 22 24  0  0  0  0  0  0  0  0999 V2000
   -4.4710   -0.0620  -20.6740 O   0  0  0  0  0  0  0  0  0  0  0  0
   -4.2640   -0.6180  -19.7070 C   0  0  0  0  0  0  0  0  0  0  0  0
   -0.7890    1.1810  -18.7820 C   0  0  0  0  0  0  0  0  0  0  0  0
   -7.5140   -1.8200  -17.4410 C   0  0  0  0  0  0  0  0  0  0  0  0
   -6.7350   -2.6320  -16.5770 C   0  0  0  0  0  0  0  0  0  0  0  0
   -7.5370   -3.4090  -15.7230 C   0  0  0  0  0  0  0  0  0  0  0  0
   -5.4040   -2.4040  -16.8820 C   0  0  0  0  0  0  0  0  0  0  0  0
   -0.2270    0.6100  -19.9510 C   0  0  0  0  0  0  0  0  0  0  0  0
   -5.4630   -1.5090  -18.0190 C   0  0  2  0  0  0  0  0  0  0  0  0
   -6.7270   -1.7140  -18.6830 C   0  0  1  0  0  0  0  0  0  0  0  0
   -3.1870   -1.5250  -17.9230 C   0  0  1  0  0  0  0  0  0  0  0  0
   -4.2490   -2.7920  -16.5900 C   0  0  0  0  0  0  0  0  0  0  0  0
   -2.2710   -0.7550  -18.4740 C   0  0  0  0  0  0  0  0  0  0  0  0
   -0.8690   -0.4650  -20.4690 C   0  0  0  0  0  0  0  0  0  0  0  0
   -4.3730   -1.2660  -18.5430 N   0  0  0  0  0  0  0  0  0  0  0  0
   -1.8070   -1.2350  -19.7050 C   0  0  0  0  0  0  0  0  0  0  0  0
   -1.8290    0.3800  -18.1650 C   0  0  0  0  0  0  0  0  0  0  0  0
   -6.6860   -2.9600  -19.2150 F   0  0  0  0  0  0  0  0  0  0  0  0
   -3.1160   -2.4940  -17.0360 C   0  0  0  0  0  0  0  0  0  0  0  0
   -8.7390   -1.2670  -17.3700 C   0  0  0  0  0  0  0  0  0  0  0  0
   -8.6600   -4.1520  -16.2920 O   0  0  0  0  0  0  0  0  0  0  0  0
   -7.3810   -3.4370  -14.4460 O   0  0  0  0  0  0  0  0  0  0  0  0
  1  2  1  0
  2 15  1  0
  3 17  2  0
  4 20  2  0
  4  5  1  0
  5  6  1  0
  6 22  1  0
  7 12  2  0
  7  5  1  0
  8  3  1  0
  9  7  1  0
 10 18  1  1
 10  9  1  0
 10  4  1  0
 11 13  1  6
 11 19  1  0
 13 17  1  0
 14  8  2  0
 14 16  1  0
  9 15  1  6
 15 11  1  0
 16 13  2  0
 19 12  1  0
 21  6  2  0
M  END
$$$$

     RDKit          3D

 18 19  0  0  0  0  0  0  0  0999 V2000
   -9.1020   -4.4670  -16.2950 O   0  0  0  0  0  0  0  0  0  0  0  0
   -8.6680   -3.0940  -17.9340 C   0  0  0  0  0  0  0  0  0  0  0  0
   -4.8140   -1.1740  -19.1970 O   0  0  0  0  0  0  0  0  0  0  0  0
   -2.1780   -3.1030  -17.4840 C   0  0  0  0  0  0  0  0  0  0  0  0
   -4.4920   -2.3470  -16.7140 C   0  0  2  0  0  0  0  0  0  0  0  0
   -1.0790   -2.6640  -17.8950 O   0  0  0  0  0  0  0  0  0  0  0  0
   -3.5640   -1.4820  -18.7320 C   0  0  0  0  0  0  0  0  0  0  0  0
   -9.0310   -0.9330  -17.3410 O   0  0  0  0  0  0  0  0  0  0  0  0
   -6.8990   -2.2860  -16.6260 O   0  0  0  0  0  0  0  0  0  0  0  0
   -4.2590   -2.5630  -15.3350 O   0  0  0  0  0  0  0  0  0  0  0  0
   -7.1780   -1.3070  -18.9540 C   0  0  0  0  0  0  0  0  0  0  0  0
   -7.9820   -1.8590  -17.6650 C   0  0  1  0  0  0  0  0  0  0  0  0
   -9.5950   -3.7190  -17.3990 C   0  0  0  0  0  0  0  0  0  0  0  0
   -2.5860   -1.0830  -19.4180 O   0  0  0  0  0  0  0  0  0  0  0  0
   -3.3840   -2.3030  -17.6130 C   0  0  2  0  0  0  0  0  0  0  0  0
   -2.3610   -4.2680  -17.0980 O   0  0  0  0  0  0  0  0  0  0  0  0
   -5.9150   -1.4570  -18.4260 C   0  0  0  0  0  0  0  0  0  0  0  0
   -5.7250   -2.0660  -17.2100 C   0  0  0  0  0  0  0  0  0  0  0  0
  2 12  1  0
  2 13  1  0
  3  7  1  0
  3 17  1  0
  4 16  1  0
  5 10  1  1
  6  4  2  0
  7 15  1  0
 11 17  1  0
 11 12  1  0
 12  8  1  1
 12  9  1  0
 13  1  1  0
 14  7  2  0
 15  4  1  6
 15  5  1  0
 17 18  2  0
 18  5  1  0
 18  9  1  0
M  END
$$$$

     RDKit          3D

 19 21  0  0  0  0  0  0  0  0999 V2000
   -6.6450   -1.5730  -17.8280 C   0  0  0  0  0  0  0  0  0  0  0  0
   -6.9660   -3.0280  -15.9910 C   0  0  0  0  0  0  0  0  0  0  0  0
   -8.2620   -2.6770  -16.3330 N   0  0  0  0  0  0  0  0  0  0  0  0
   -8.7180   -1.7880  -17.2840 C   0  0  0  0  0  0  0  0  0  0  0  0
   -7.8160   -1.1830  -18.0100 N   0  0  0  0  0  0  0  0  0  0  0  0
   -4.0480   -1.5730  -17.5830 C   0  0  2  0  0  0  0  0  0  0  0  0
   -5.6450   -3.0360  -16.3310 N   0  0  0  0  0  0  0  0  0  0  0  0
  -10.0370   -1.4440  -17.4830 N   0  0  0  0  0  0  0  0  0  0  0  0
   -6.9670   -3.8440  -14.8560 O   0  0  0  0  0  0  0  0  0  0  0  0
   -2.3240    0.2640  -17.4550 C   0  0  0  0  0  0  0  0  0  0  0  0
   -2.4740   -3.5230  -16.8700 C   0  0  0  0  0  0  0  0  0  0  0  0
   -1.0700    0.4630  -19.6240 O   0  0  0  0  0  0  0  0  0  0  0  0
   -1.8970    1.2690  -16.7640 O   0  0  0  0  0  0  0  0  0  0  0  0
   -2.6650   -2.4480  -17.9740 C   0  0  2  0  0  0  0  0  0  0  0  0
   -3.4950   -0.3830  -17.0920 O   0  0  0  0  0  0  0  0  0  0  0  0
   -1.6730   -1.8200  -18.6600 C   0  0  2  0  0  0  0  0  0  0  0  0
   -1.2080   -0.3270  -18.4280 C   0  0  2  0  0  0  0  0  0  0  0  0
   -5.4390   -2.0330  -17.3590 C   0  0  1  0  0  0  0  0  0  0  0  0
   -2.7300   -2.1310  -19.6740 C   0  0  0  0  0  0  0  0  0  0  0  0
  2  9  2  0
  3  2  1  0
  4  3  2  0
  5  1  1  0
  5  4  1  0
  6 18  1  0
  6 15  1  1
  7  2  1  0
  8  4  1  0
 10 15  1  0
 10 13  2  0
 14  6  1  0
 14 11  1  6
 16 19  1  6
 16 17  1  0
 16 14  1  0
 17 12  1  6
 17 10  1  0
 18  1  1  1
 18  7  1  0
 19 14  1  0
M  END
$$$$

     RDKit          3D

 16 17  0  0  0  0  0  0  0  0999 V2000
   -7.2310   -3.8410  -15.1980 O   0  0  0  0  0  0  0  0  0  0  0  0
   -4.4800   -1.7010  -18.2930 C   0  0  0  0  0  0  0  0  0  0  0  0
   -5.4800   -1.2860  -19.2240 N   0  0  0  0  0  0  0  0  0  0  0  0
   -2.9410   -0.3640  -19.3890 F   0  0  0  0  0  0  0  0  0  0  0  0
   -4.8070   -2.4850  -17.1680 C   0  0  0  0  0  0  0  0  0  0  0  0
   -3.7820   -3.2270  -16.5920 C   0  0  0  0  0  0  0  0  0  0  0  0
   -6.0360   -2.5730  -16.6170 C   0  0  0  0  0  0  0  0  0  0  0  0
   -6.8170   -1.8890  -18.8970 C   0  0  2  0  0  0  0  0  0  0  0  0
   -6.9090   -3.0320  -19.7240 O   0  0  0  0  0  0  0  0  0  0  0  0
   -7.5820   -0.8450  -19.2920 O   0  0  0  0  0  0  0  0  0  0  0  0
   -6.3490   -3.0420  -15.3660 C   0  0  0  0  0  0  0  0  0  0  0  0
   -2.2130   -2.0510  -17.8670 C   0  0  0  0  0  0  0  0  0  0  0  0
   -2.4680   -3.0240  -16.9790 C   0  0  0  0  0  0  0  0  0  0  0  0
   -7.1420   -2.2250  -17.4900 C   0  0  0  0  0  0  0  0  0  0  0  0
   -8.5440   -2.2110  -17.0630 C   0  0  0  0  0  0  0  0  0  0  0  0
   -3.1580   -1.3740  -18.5070 C   0  0  0  0  0  0  0  0  0  0  0  0
  2  5  2  0
  3  8  1  0
  3  2  1  0
  4 16  1  0
  5  7  1  0
  5  6  1  0
  7 11  1  0
  8 14  1  0
  8  9  1  6
 10  8  1  0
 11  1  2  0
 12 13  1  0
 13  6  2  0
 14 15  1  0
 14  7  2  0
 16  2  1  0
 16 12  2  0
M  END
$$$$

     RDKit          3D

 22 23  0  0  0  0  0  0  0  0999 V2000
   -5.3240   -2.1700  -17.5090 N   0  0  0  0  0  0  0  0  0  0  0  0
    1.0770    1.4860  -18.2490 O   0  0  0  0  0  0  0  0  0  0  0  0
   -0.0740   -0.5610  -18.6490 C   0  0  0  0  0  0  0  0  0  0  0  0
   -3.1980   -3.3610  -17.3440 C   0  0  0  0  0  0  0  0  0  0  0  0
   -0.8050   -0.4910  -17.3760 N   0  0  0  0  0  0  0  0  0  0  0  0
   -7.7420   -4.6900  -14.6300 O   0  0  0  0  0  0  0  0  0  0  0  0
   -5.3910   -1.8060  -18.7480 C   0  0  0  0  0  0  0  0  0  0  0  0
   -7.2900   -3.8210  -15.1240 C   0  0  0  0  0  0  0  0  0  0  0  0
   -1.8530   -1.3700  -16.8450 C   0  0  0  0  0  0  0  0  0  0  0  0
   -6.7600   -2.9670  -15.7410 N   0  0  0  0  0  0  0  0  0  0  0  0
   -0.0120    0.2270  -16.3190 C   0  0  0  0  0  0  0  0  0  0  0  0
   -9.0240   -3.3950  -17.2810 N   0  0  0  0  0  0  0  0  0  0  0  0
   -0.7120   -3.5100  -17.7940 O   0  0  0  0  0  0  0  0  0  0  0  0
   -6.8640   -1.8850  -19.1630 C   0  0  2  0  0  0  0  0  0  0  0  0
   -8.7840   -1.9690  -17.2150 C   0  0  0  0  0  0  0  0  0  0  0  0
   -4.1600   -2.4980  -16.8740 O   0  0  0  0  0  0  0  0  0  0  0  0
   -1.7950   -2.8860  -17.0520 C   0  0  2  0  0  0  0  0  0  0  0  0
    0.7500    1.3900  -16.8210 C   0  0  0  0  0  0  0  0  0  0  0  0
    0.2040    0.8380  -19.1740 C   0  0  0  0  0  0  0  0  0  0  0  0
   -6.4620   -2.2760  -16.8280 C   0  0  2  0  0  0  0  0  0  0  0  0
   -7.5230   -1.6580  -17.8520 C   0  0  1  0  0  0  0  0  0  0  0  0
   -6.9290   -3.2720  -19.6540 O   0  0  0  0  0  0  0  0  0  0  0  0
  1 16  1  0
  1 20  1  0
  2 18  1  0
  3  5  1  0
  4 17  1  0
  4 16  1  0
  5  9  1  0
  5 11  1  0
  7  1  1  0
  8  6  2  0
 10  8  2  0
 12 15  1  0
 14 22  1  1
 14  7  1  0
 14 21  1  0
 17 13  1  6
 17  9  1  0
 18 11  1  0
 19  3  1  0
 19  2  1  0
 20 10  1  6
 21 15  1  6
 21 20  1  0
M  END
$$$$

     RDKit          3D

 19 22  0  0  0  0  0  0  0  0999 V2000
   -6.0940   -2.5500  -16.5880 C   0  0  0  0  0  0  0  0  0  0  0  0
   -2.6910   -0.4420  -19.2200 N   0  0  0  0  0  0  0  0  0  0  0  0
   -7.4680   -1.7290  -18.4940 C   0  0  0  0  0  0  0  0  0  0  0  0
   -4.0550   -0.8070  -19.3730 C   0  0  0  0  0  0  0  0  0  0  0  0
   -4.8140   -2.1380  -17.0760 C   0  0  0  0  0  0  0  0  0  0  0  0
   -4.8910   -1.5020  -18.3850 C   0  0  0  0  0  0  0  0  0  0  0  0
   -7.3110   -2.3450  -17.2470 C   0  0  0  0  0  0  0  0  0  0  0  0
   -2.1060   -1.0210  -18.1350 C   0  0  0  0  0  0  0  0  0  0  0  0
   -8.2910   -2.8860  -16.4310 N   0  0  0  0  0  0  0  0  0  0  0  0
   -7.6910   -3.3290  -15.2980 C   0  0  0  0  0  0  0  0  0  0  0  0
   -0.0770   -1.3340  -16.8940 C   0  0  0  0  0  0  0  0  0  0  0  0
   -6.4110   -3.1400  -15.3820 N   0  0  0  0  0  0  0  0  0  0  0  0
   -4.7590   -0.4920  -20.4430 N   0  0  0  0  0  0  0  0  0  0  0  0
   -0.7660   -0.9250  -17.7980 C   0  0  0  0  0  0  0  0  0  0  0  0
   -2.3350   -2.1770  -16.0780 C   0  0  0  0  0  0  0  0  0  0  0  0
   -2.8210   -1.6530  -17.2200 C   0  0  0  0  0  0  0  0  0  0  0  0
   -6.2170   -1.3710  -19.0070 C   0  0  0  0  0  0  0  0  0  0  0  0
   -6.0280   -0.7560  -20.2930 N   0  0  0  0  0  0  0  0  0  0  0  0
   -1.0460   -1.9270  -16.0070 C   0  0  0  0  0  0  0  0  0  0  0  0
  1 12  2  0
  2  8  1  0
  3  7  2  0
  4  2  1  0
  4  6  1  0
  5  1  1  0
  6  5  2  0
  7  1  1  0
  7  9  1  0
  8 14  2  0
  8 16  1  0
  9 10  2  0
 11 19  2  0
 12 10  1  0
 13 18  1  0
 13  4  2  0
 14 11  1  0
 15 19  1  0
 16 15  2  0
 17  3  1  0
 17  6  1  0
 18 17  2  0
M  END
$$$$

     RDKit          3D

 20 22  0  0  0  0  0  0  0  0999 V2000
   -0.3780   -0.2670  -20.1550 C   0  0  0  0  0  0  0  0  0  0  0  0
   -9.1390   -2.4730  -17.1300 C   0  0  0  0  0  0  0  0  0  0  0  0
    0.1950    0.5440  -17.7700 C   0  0  0  0  0  0  0  0  0  0  0  0
   -3.3150   -1.2470  -17.7810 N   0  0  0  0  0  0  0  0  0  0  0  0
   -5.3500   -0.9640  -19.0400 O   0  0  0  0  0  0  0  0  0  0  0  0
   -5.5920   -1.8830  -17.8270 C   0  0  1  0  0  0  0  0  0  0  0  0
   -2.4260   -3.2130  -16.8480 O   0  0  0  0  0  0  0  0  0  0  0  0
   -5.0480   -3.1450  -15.6580 C   0  0  0  0  0  0  0  0  0  0  0  0
   -9.1560   -0.3940  -17.7660 O   0  0  0  0  0  0  0  0  0  0  0  0
   -5.0980   -2.3470  -16.6980 C   0  0  0  0  0  0  0  0  0  0  0  0
   -1.4180   -1.2810  -19.6910 C   0  0  0  0  0  0  0  0  0  0  0  0
   -7.3530   -3.2330  -18.9680 O   0  0  0  0  0  0  0  0  0  0  0  0
   -6.9760   -2.1820  -18.0000 C   0  0  0  0  0  0  0  0  0  0  0  0
   -8.4430   -1.4350  -17.5630 C   0  0  1  0  0  0  0  0  0  0  0  0
   -1.0580   -0.3360  -17.4360 C   0  0  0  0  0  0  0  0  0  0  0  0
   -2.1060   -1.0010  -18.6200 C   0  0  2  0  0  0  0  0  0  0  0  0
   -4.3800   -1.8890  -17.4580 C   0  0  2  0  0  0  0  0  0  0  0  0
    0.7460   -0.4920  -19.1190 C   0  0  0  0  0  0  0  0  0  0  0  0
   -7.4310   -1.4920  -16.9160 O   0  0  0  0  0  0  0  0  0  0  0  0
   -3.1210   -2.4600  -17.3030 C   0  0  0  0  0  0  0  0  0  0  0  0
  1 11  1  0
  1 18  1  0
  3 15  1  0
 17  4  1  1
  4 20  1  0
  6  5  1  1
  6 17  1  0
  6 10  1  0
  9 14  1  0
 10  8  2  0
 11 16  1  0
 12 13  2  0
 13  6  1  0
 13 19  1  0
 14  2  1  1
 14 19  1  0
 16  4  1  1
 16 15  1  0
 17 20  1  0
 17 10  1  0
 18  3  1  0
 20  7  2  0
M  END
$$$$

     RDKit          3D

 23 25  0  0  0  0  0  0  0  0999 V2000
   -2.3360   -3.4140  -15.2130 C   0  0  0  0  0  0  0  0  0  0  0  0
   -3.3310   -4.4230  -17.1440 C   0  0  0  0  0  0  0  0  0  0  0  0
   -9.3300   -3.8560  -17.6410 C   0  0  0  0  0  0  0  0  0  0  0  0
   -6.3550   -1.9540  -17.5050 C   0  0  0  0  0  0  0  0  0  0  0  0
   -9.0090   -4.0780  -16.1360 C   0  0  2  0  0  0  0  0  0  0  0  0
   -7.0310   -3.0280  -17.0680 O   0  0  0  0  0  0  0  0  0  0  0  0
   -3.0490   -3.0700  -16.4500 C   0  0  1  0  0  0  0  0  0  0  0  0
   -2.0960   -0.4520  -19.6600 P   0  0  1  0  0  0  0  0  0  0  0  0
   -8.4380   -2.8380  -16.8660 C   0  0  1  0  0  0  0  0  0  0  0  0
   -8.5020   -0.9620  -18.1750 C   0  0  0  0  0  0  0  0  0  0  0  0
   -4.2190   -1.8400  -18.5260 O   0  0  0  0  0  0  0  0  0  0  0  0
   -9.2790   -1.5860  -17.0660 C   0  0  0  0  0  0  0  0  0  0  0  0
   -4.3470   -2.2390  -16.1260 C   0  0  0  0  0  0  0  0  0  0  0  0
   -1.5500   -1.2550  -16.3370 O   0  0  0  0  0  0  0  0  0  0  0  0
   -2.9600   -1.3850  -18.3330 C   0  0  1  0  0  0  0  0  0  0  0  0
   -5.0070   -1.9330  -17.3740 N   0  0  0  0  0  0  0  0  0  0  0  0
   -0.6590   -1.0600  -20.3760 C   0  0  0  0  0  0  0  0  0  0  0  0
   -7.0860   -0.9970  -18.1670 C   0  0  0  0  0  0  0  0  0  0  0  0
   -3.1260   -0.0190  -20.6500 O   0  0  0  0  0  0  0  0  0  0  0  0
   -7.9070   -4.2910  -15.0710 O   0  0  0  0  0  0  0  0  0  0  0  0
   -2.2190   -2.1570  -17.2790 C   0  0  2  0  0  0  0  0  0  0  0  0
   -0.4560    1.7620  -19.3460 C   0  0  0  0  0  0  0  0  0  0  0  0
   -1.6110    0.9030  -18.7330 C   0  0  0  0  0  0  0  0  0  0  0  0
  7  2  1  6
  3  5  1  0
  4 16  1  0
  4  6  1  0
  5 20  1  6
  6  9  1  0
  7 13  1  0
  7  1  1  0
  8 17  1  6
  8 23  1  0
  9  3  1  6
  9  5  1  0
 10 18  1  0
 10 12  1  0
 15 11  1  6
 11 16  1  0
 12  9  1  0
 15  8  1  0
 15 21  1  0
 16 13  1  0
 18  4  2  0
 19  8  2  0
 21  7  1  0
 21 14  1  1
 22 23  1  0
M  END
$$$$

     RDKit          3D

 21 25  0  0  0  0  0  0  0  0999 V2000
   -2.1500   -1.4090  -17.5880 C   0  0  0  0  0  0  0  0  0  0  0  0
   -6.6420   -1.3920  -18.1170 C   0  0  0  0  0  0  0  0  0  0  0  0
    0.3940   -0.9460  -18.2450 C   0  0  0  0  0  0  0  0  0  0  0  0
   -7.7480   -3.6490  -15.6180 C   0  0  0  0  0  0  0  0  0  0  0  0
   -7.4180   -2.6760  -17.9120 C   0  0  1  0  0  0  0  0  0  0  0  0
   -8.9470   -3.1880  -16.1460 O   0  0  0  0  0  0  0  0  0  0  0  0
   -5.3770   -2.5320  -16.2060 C   0  0  0  0  0  0  0  0  0  0  0  0
   -2.8500   -2.2870  -16.8350 C   0  0  0  0  0  0  0  0  0  0  0  0
   -4.1450   -0.9150  -18.7770 N   0  0  0  0  0  0  0  0  0  0  0  0
   -5.0660   -2.6950  -15.0620 O   0  0  0  0  0  0  0  0  0  0  0  0
   -6.7400   -2.9640  -16.5020 N   0  0  0  0  0  0  0  0  0  0  0  0
   -2.2390   -0.2590  -19.9080 C   0  0  0  0  0  0  0  0  0  0  0  0
   -7.5660   -4.5410  -14.8570 O   0  0  0  0  0  0  0  0  0  0  0  0
   -0.8760    0.5500  -19.7770 C   0  0  0  0  0  0  0  0  0  0  0  0
   -8.8120   -2.4230  -17.4570 C   0  0  0  0  0  0  0  0  0  0  0  0
   -0.7080   -0.8800  -17.1750 C   0  0  1  0  0  0  0  0  0  0  0  0
   -0.4580    0.5580  -18.1680 C   0  0  1  0  0  0  0  0  0  0  0  0
   -2.1860   -3.2890  -16.2780 C   0  0  0  0  0  0  0  0  0  0  0  0
   -5.0980   -1.5350  -17.9650 C   0  0  0  0  0  0  0  0  0  0  0  0
   -4.2580   -2.1910  -16.9170 C   0  0  0  0  0  0  0  0  0  0  0  0
   -2.8640   -0.8380  -18.7260 C   0  0  0  0  0  0  0  0  0  0  0  0
  1 16  1  0
  1  8  2  0
  2 19  1  0
 17  3  1  6
  4 13  2  0
  5  2  1  1
  5 15  1  0
  5 11  1  0
  6  4  1  0
  7 10  2  0
  8 18  1  0
  9 21  2  0
  9 19  1  0
 11  7  1  0
 11  4  1  0
 12 14  1  0
 12 21  1  0
 15  6  1  0
 16  3  1  6
 17 14  1  0
 17 16  1  0
 19 20  2  0
 20  8  1  0
 20  7  1  0
 21  1  1  0
M  END
$$$$

     RDKit          3D

 22 24  0  0  0  0  0  0  0  0999 V2000
   -7.1970   -3.6540  -15.0910 O   0  0  0  0  0  0  0  0  0  0  0  0
   -5.4110   -2.7380  -17.0570 C   0  0  2  0  0  0  0  0  0  0  0  0
   -8.5440   -1.0570  -18.0650 C   0  0  0  0  0  0  0  0  0  0  0  0
   -4.5210   -1.9640  -17.9390 C   0  0  0  0  0  0  0  0  0  0  0  0
   -0.9070    0.5430  -16.8690 C   0  0  0  0  0  0  0  0  0  0  0  0
   -6.4350   -1.1870  -19.2560 C   0  0  0  0  0  0  0  0  0  0  0  0
   -6.7600   -2.3920  -17.0500 C   0  0  0  0  0  0  0  0  0  0  0  0
   -7.1810   -1.5510  -18.1330 C   0  0  0  0  0  0  0  0  0  0  0  0
   -3.9870   -0.3260  -20.1610 S   0  0  0  0  0  0  0  0  0  0  0  0
   -8.8270   -2.2690  -16.0490 C   0  0  0  0  0  0  0  0  0  0  0  0
   -7.5960   -2.7690  -16.0000 C   0  0  0  0  0  0  0  0  0  0  0  0
   -4.9560   -3.5620  -16.1750 O   0  0  0  0  0  0  0  0  0  0  0  0
   -1.2560    1.7330  -17.4890 O   0  0  0  0  0  0  0  0  0  0  0  0
   -9.2510   -1.4070  -16.9690 C   0  0  0  0  0  0  0  0  0  0  0  0
   -6.9560   -0.8040  -20.3190 O   0  0  0  0  0  0  0  0  0  0  0  0
   -2.6210   -2.9800  -17.2550 O   0  0  0  0  0  0  0  0  0  0  0  0
   -3.1630   -1.8660  -17.6360 C   0  0  1  0  0  0  0  0  0  0  0  0
   -1.0050   -0.6810  -17.8000 C   0  0  1  0  0  0  0  0  0  0  0  0
   -2.8640    0.1010  -19.0520 C   0  0  0  0  0  0  0  0  0  0  0  0
   -5.0840   -1.2310  -19.0040 C   0  0  0  0  0  0  0  0  0  0  0  0
   -0.4480   -1.8970  -17.1450 O   0  0  0  0  0  0  0  0  0  0  0  0
   -2.3910   -0.7630  -18.0580 C   0  0  1  0  0  0  0  0  0  0  0  0
  2  7  1  0
  2 12  1  1
  3 14  1  0
  4 17  1  0
  4  2  1  0
  6 20  1  0
  6  8  1  0
  7 11  2  0
  8  3  2  0
  8  7  1  0
  9 19  1  0
  9 20  1  0
 10 11  1  0
 11  1  1  0
 13  5  1  0
 14 10  2  0
 15  6  2  0
 17 16  1  6
 18 21  1  1
 18  5  1  0
 22 19  1  6
 20  4  2  0
 22 18  1  0
 22 17  1  0
M  END
$$$$

     RDKit          3D

 23 25  0  0  0  0  0  0  0  0999 V2000
   -1.5520   -2.2230  -17.4700 C   0  0  1  0  0  0  0  0  0  0  0  0
   -8.0140   -1.8600  -18.1330 C   0  0  0  0  0  0  0  0  0  0  0  0
  -10.0010   -1.2940  -17.2280 O   0  0  0  0  0  0  0  0  0  0  0  0
   -0.2990   -2.4130  -16.6620 O   0  0  0  0  0  0  0  0  0  0  0  0
   -0.6720    2.2250  -18.5090 O   0  0  0  0  0  0  0  0  0  0  0  0
   -6.4630   -2.8150  -16.6710 C   0  0  2  0  0  0  0  0  0  0  0  0
   -5.0790   -2.7230  -16.1280 C   0  0  0  0  0  0  0  0  0  0  0  0
   -2.4980   -3.5710  -15.6500 O   0  0  0  0  0  0  0  0  0  0  0  0
   -0.7550   -0.2440  -18.7930 C   0  0  0  0  0  0  0  0  0  0  0  0
   -3.2080   -0.8380  -19.3350 S   0  0  0  0  0  0  0  0  0  0  0  0
   -5.6710   -1.8610  -19.0000 C   0  0  0  0  0  0  0  0  0  0  0  0
   -6.7570   -2.2350  -17.9310 C   0  0  0  0  0  0  0  0  0  0  0  0
   -2.2330    0.0030  -16.7500 O   0  0  0  0  0  0  0  0  0  0  0  0
   -7.4620   -3.2800  -15.7910 C   0  0  0  0  0  0  0  0  0  0  0  0
   -4.4650   -1.3640  -18.2040 C   0  0  1  0  0  0  0  0  0  0  0  0
   -7.2600   -4.1480  -14.9230 O   0  0  0  0  0  0  0  0  0  0  0  0
   -8.7270   -2.7310  -16.0140 N   0  0  0  0  0  0  0  0  0  0  0  0
   -8.9380   -1.9440  -17.0870 C   0  0  0  0  0  0  0  0  0  0  0  0
   -2.6970   -2.7650  -16.6860 C   0  0  2  0  0  0  0  0  0  0  0  0
   -4.1110   -2.6290  -17.3380 C   0  0  1  0  0  0  0  0  0  0  0  0
   -1.0760    1.2820  -19.1770 C   0  0  0  0  0  0  0  0  0  0  0  0
   -1.8960   -0.8000  -17.9000 C   0  0  1  0  0  0  0  0  0  0  0  0
   -8.1840   -1.5190  -19.2010 F   0  0  0  0  0  0  0  0  0  0  0  0
  1 19  1  0
  1  4  1  1
  2 12  2  0
  2 18  1  0
  3 18  2  0
  6  7  1  1
  6 14  1  0
  9 22  1  0
 10 15  1  0
 10 22  1  0
 11 12  1  0
 12  6  1  0
 14 16  2  0
 15 11  1  6
 15 20  1  0
 17 14  1  0
 18 17  1  0
 19  8  1  6
 20 19  1  0
 20  7  1  1
 21  9  1  0
 21  5  2  0
 22  1  1  0
 22 13  1  1
 23  2  1  0
M  END
$$$$

     RDKit          3D

 17 18  0  0  0  0  0  0  0  0999 V2000
   -7.2850   -2.1600  -17.0910 C   0  0  0  0  0  0  0  0  0  0  0  0
   -3.1100   -0.4360  -19.7390 C   0  0  0  0  0  0  0  0  0  0  0  0
   -6.0290   -2.4190  -16.8200 N   0  0  0  0  0  0  0  0  0  0  0  0
   -3.7840   -0.8120  -18.4250 C   0  0  1  0  0  0  0  0  0  0  0  0
   -7.0990   -3.6290  -15.4640 C   0  0  2  0  0  0  0  0  0  0  0  0
   -3.6460   -2.7770  -17.0930 C   0  0  0  0  0  0  0  0  0  0  0  0
   -3.2120   -3.3840  -16.2230 O   0  0  0  0  0  0  0  0  0  0  0  0
   -4.0560    0.1310  -17.3430 F   0  0  0  0  0  0  0  0  0  0  0  0
   -7.4080   -4.8180  -14.8360 O   0  0  0  0  0  0  0  0  0  0  0  0
   -1.5260   -1.2910  -17.0880 O   0  0  0  0  0  0  0  0  0  0  0  0
   -5.0220   -1.6380  -18.6610 C   0  0  0  0  0  0  0  0  0  0  0  0
   -2.6960   -1.7590  -17.9210 C   0  0  2  0  0  0  0  0  0  0  0  0
   -5.7610   -3.1730  -15.6140 C   0  0  0  0  0  0  0  0  0  0  0  0
   -4.9420   -2.7490  -17.7130 C   0  0  2  0  0  0  0  0  0  0  0  0
   -7.9960   -2.6920  -15.8980 C   0  0  2  0  0  0  0  0  0  0  0  0
   -7.8080   -1.5940  -18.0520 O   0  0  0  0  0  0  0  0  0  0  0  0
   -9.3560   -3.2220  -16.3320 N   0  0  0  0  0  0  0  0  0  0  0  0
  1  3  1  0
  1 15  1  0
  3 13  1  0
  4  2  1  6
  4 12  1  0
  4  8  1  0
  5  9  1  1
  6  7  2  0
 11  4  1  0
 12  6  1  0
 12 10  1  1
 13  5  1  0
 14 11  1  0
 14  6  1  0
 14  3  1  1
 15 17  1  6
 15  5  1  0
 16  1  2  0
M  END
$$$$

     RDKit          3D

 19 20  0  0  0  0  0  0  0  0999 V2000
   -8.1030   -2.5720  -16.0320 O   0  0  0  0  0  0  0  0  0  0  0  0
   -5.6420   -2.1220  -18.4890 C   0  0  2  0  0  0  0  0  0  0  0  0
   -3.3620   -2.5530  -17.0530 C   0  0  0  0  0  0  0  0  0  0  0  0
   -9.8120    0.3950  -17.0070 O   0  0  0  0  0  0  0  0  0  0  0  0
   -7.5660   -2.2200  -17.0090 C   0  0  0  0  0  0  0  0  0  0  0  0
  -10.4730   -1.7380  -17.6330 O   0  0  0  0  0  0  0  0  0  0  0  0
   -1.2250   -1.3440  -17.0030 C   0  0  0  0  0  0  0  0  0  0  0  0
   -4.5240   -1.8150  -17.5030 C   0  0  1  0  0  0  0  0  0  0  0  0
   -6.3640   -0.8970  -19.3890 C   0  0  0  0  0  0  0  0  0  0  0  0
   -1.1020   -1.3520  -18.0920 C   0  0  0  0  0  0  0  0  0  0  0  0
   -9.5800   -0.8010  -17.3930 C   0  0  0  0  0  0  0  0  0  0  0  0
   -2.2090   -2.1390  -16.2410 C   0  0  0  0  0  0  0  0  0  0  0  0
   -3.7220   -0.9780  -17.5140 C   0  0  0  0  0  0  0  0  0  0  0  0
   -2.9830   -1.3070  -20.2750 C   0  0  0  0  0  0  0  0  0  0  0  0
   -7.5790   -0.5990  -18.8750 C   0  0  0  0  0  0  0  0  0  0  0  0
   -2.2540   -0.9430  -19.0390 C   0  0  1  0  0  0  0  0  0  0  0  0
   -3.3250   -0.0140  -18.5520 C   0  0  0  0  0  0  0  0  0  0  0  0
   -6.4000   -2.7930  -17.4490 N   0  0  0  0  0  0  0  0  0  0  0  0
   -8.2570   -1.1740  -17.7220 C   0  0  2  0  0  0  0  0  0  0  0  0
  2  9  1  0
  2  8  1  0
  2 18  1  1
  3 12  1  0
  5  1  2  0
  6 11  2  0
  7 12  1  0
  8 13  1  6
  8  3  1  0
  9 15  2  0
 10  7  1  0
 11  4  1  0
 15 19  1  0
 16 14  1  1
 16 17  1  0
 16 10  1  0
 17 13  1  0
 18  5  1  0
 19 11  1  6
 19  5  1  0
M  END
$$$$

     RDKit          3D

 22 24  0  0  0  0  0  0  0  0999 V2000
   -7.5760   -2.0090  -17.2200 C   0  0  1  0  0  0  0  0  0  0  0  0
   -2.6960   -2.6270  -15.7480 C   0  0  0  0  0  0  0  0  0  0  0  0
   -2.5570   -0.8210  -19.4720 C   0  0  0  0  0  0  0  0  0  0  0  0
   -0.5460   -2.5040  -18.5030 C   0  0  0  0  0  0  0  0  0  0  0  0
   -7.7720   -1.9140  -18.6580 C   0  0  0  0  0  0  0  0  0  0  0  0
   -0.3300   -1.6130  -19.5560 C   0  0  0  0  0  0  0  0  0  0  0  0
   -3.5310   -0.1770  -20.0120 O   0  0  0  0  0  0  0  0  0  0  0  0
   -1.3290   -0.9560  -20.1920 C   0  0  0  0  0  0  0  0  0  0  0  0
   -8.5750   -2.4560  -16.3320 C   0  0  0  0  0  0  0  0  0  0  0  0
   -8.2830   -3.5640  -15.6080 O   0  0  0  0  0  0  0  0  0  0  0  0
    0.9920   -1.6110  -20.0310 O   0  0  0  0  0  0  0  0  0  0  0  0
   -6.2720   -2.1330  -16.7510 O   0  0  0  0  0  0  0  0  0  0  0  0
   -6.2520   -2.0970  -19.0110 C   0  0  2  0  0  0  0  0  0  0  0  0
   -1.7290   -2.9220  -16.5280 N   0  0  0  0  0  0  0  0  0  0  0  0
   -3.7740   -1.9420  -16.1570 C   0  0  0  0  0  0  0  0  0  0  0  0
   -9.6770   -1.7540  -16.1060 O   0  0  0  0  0  0  0  0  0  0  0  0
   -2.7710   -1.6200  -18.3000 C   0  0  0  0  0  0  0  0  0  0  0  0
   -6.4500   -3.5200  -19.1910 O   0  0  0  0  0  0  0  0  0  0  0  0
   -1.7420   -2.3890  -17.7600 C   0  0  0  0  0  0  0  0  0  0  0  0
   -2.6150   -3.1150  -14.6060 O   0  0  0  0  0  0  0  0  0  0  0  0
   -5.4820   -1.9640  -17.9150 C   0  0  1  0  0  0  0  0  0  0  0  0
   -4.1730   -1.4770  -17.5030 C   0  0  1  0  0  0  0  0  0  0  0  0
  1 12  1  0
  1  9  1  6
  2 20  2  0
  3 17  2  0
  4 19  2  0
  5  1  1  0
  6  4  1  0
  7  3  1  0
  8  6  2  0
  8  3  1  0
  9 16  2  0
  9 10  1  0
 11  6  1  0
 13 18  1  1
 13  5  1  0
 13 21  1  0
 14  2  1  0
 15  2  1  0
 17 19  1  0
 17 22  1  0
 19 14  1  0
 21 22  1  0
 21 12  1  1
 22 15  1  1
M  END
$$$$

     RDKit          3D

 20 22  0  0  0  0  0  0  0  0999 V2000
   -8.3080   -0.5380  -19.2670 C   0  0  0  0  0  0  0  0  0  0  0  0
  -10.3970    0.0660  -16.8220 O   0  0  0  0  0  0  0  0  0  0  0  0
   -2.8000   -3.1150  -16.3900 C   0  0  0  0  0  0  0  0  0  0  0  0
   -7.4940   -2.2890  -17.5270 C   0  0  1  0  0  0  0  0  0  0  0  0
   -3.0420   -0.9650  -17.4040 C   0  0  0  0  0  0  0  0  0  0  0  0
   -7.5380   -3.1390  -18.7480 C   0  0  0  0  0  0  0  0  0  0  0  0
   -6.0860   -1.6830  -17.6780 C   0  0  1  0  0  0  0  0  0  0  0  0
   -8.3100   -4.0310  -15.8900 O   0  0  0  0  0  0  0  0  0  0  0  0
   -3.6620   -2.1150  -16.9290 C   0  0  0  0  0  0  0  0  0  0  0  0
   -9.7020   -1.0730  -17.1580 C   0  0  0  0  0  0  0  0  0  0  0  0
   -1.6700   -0.7210  -16.8510 C   0  0  0  0  0  0  0  0  0  0  0  0
   -8.3560   -1.0030  -17.8420 C   0  0  2  0  0  0  0  0  0  0  0  0
   -6.8650   -0.2740  -19.6060 C   0  0  0  0  0  0  0  0  0  0  0  0
   -9.7740   -2.3630  -16.6130 N   0  0  0  0  0  0  0  0  0  0  0  0
   -4.9870   -2.5710  -16.8990 C   0  0  0  0  0  0  0  0  0  0  0  0
   -1.0640   -1.4430  -15.8180 C   0  0  0  0  0  0  0  0  0  0  0  0
   -5.5120   -3.3530  -16.2090 O   0  0  0  0  0  0  0  0  0  0  0  0
   -8.5130   -2.8720  -16.7510 C   0  0  0  0  0  0  0  0  0  0  0  0
   -1.8780   -2.4650  -15.3690 C   0  0  0  0  0  0  0  0  0  0  0  0
   -5.7620   -0.6150  -18.4820 C   0  0  0  0  0  0  0  0  0  0  0  0
  3 19  1  0
  4  6  1  6
  4 18  1  0
  5  9  1  0
  5 11  1  0
  7  4  1  0
  7 15  1  6
  9 15  1  0
  9  3  1  0
 10  2  2  0
 10 14  1  0
 11 16  1  0
 12  1  1  6
 12  4  1  0
 12 10  1  0
 13  1  1  0
 13 20  1  0
 15 17  2  0
 16 19  1  0
 18 14  1  0
 18  8  2  0
 20  7  1  0
M  END
$$$$

     RDKit          3D

 20 22  0  0  0  0  0  0  0  0999 V2000
   -1.0230    0.6390  -16.5890 C   0  0  0  0  0  0  0  0  0  0  0  0
   -1.4520    0.9460  -18.9360 C   0  0  0  0  0  0  0  0  0  0  0  0
   -4.1140   -2.4040  -15.8450 C   0  0  0  0  0  0  0  0  0  0  0  0
   -2.6560   -0.6550  -17.6720 C   0  0  0  0  0  0  0  0  0  0  0  0
   -5.5980   -2.8970  -17.6980 C   0  0  2  0  0  0  0  0  0  0  0  0
   -5.3470   -2.7680  -16.0810 C   0  0  0  0  0  0  0  0  0  0  0  0
   -4.7100   -1.8250  -17.9910 C   0  0  0  0  0  0  0  0  0  0  0  0
   -8.2350   -2.8370  -15.9670 C   0  0  0  0  0  0  0  0  0  0  0  0
   -3.7330   -1.5010  -17.4180 C   0  0  0  0  0  0  0  0  0  0  0  0
   -8.0660   -2.3490  -17.5790 C   0  0  0  0  0  0  0  0  0  0  0  0
   -6.7680   -2.6930  -18.3090 N   0  0  0  0  0  0  0  0  0  0  0  0
   -3.3500   -0.4940  -19.6410 C   0  0  0  0  0  0  0  0  0  0  0  0
   -8.9760   -2.4020  -18.2110 O   0  0  0  0  0  0  0  0  0  0  0  0
   -8.2890   -3.9100  -15.7160 O   0  0  0  0  0  0  0  0  0  0  0  0
   -8.6750   -1.8020  -15.4980 O   0  0  0  0  0  0  0  0  0  0  0  0
   -2.5030   -0.0510  -18.7640 C   0  0  0  0  0  0  0  0  0  0  0  0
   -6.7690   -2.7170  -19.4740 O   0  0  0  0  0  0  0  0  0  0  0  0
   -1.9970   -0.4180  -16.5380 C   0  0  0  0  0  0  0  0  0  0  0  0
   -4.3550   -1.3440  -19.2020 C   0  0  0  0  0  0  0  0  0  0  0  0
   -0.6200    1.1850  -17.8430 C   0  0  0  0  0  0  0  0  0  0  0  0
  1 18  2  0
  2 16  1  0
  2 20  2  0
  4  9  2  0
  4 18  1  0
  5 11  1  1
  5  6  1  0
  6  3  1  0
  7  5  1  0
  7  9  1  0
  8 14  2  0
  8 15  1  0
  9  3  1  0
 10  8  1  0
 11 10  1  0
 12 19  1  0
 12 16  2  0
 13 10  2  0
 16  4  1  0
 17 11  1  0
 19  7  2  0
 20  1  1  0
M  END
$$$$

     RDKit          3D

 22 22  0  0  0  0  0  0  0  0999 V2000
   -0.4870   -1.1810  -17.3670 C   0  0  0  0  0  0  0  0  0  0  0  0
   -0.3500   -0.2100  -16.3620 C   0  0  2  0  0  0  0  0  0  0  0  0
   -5.0150   -1.1710  -18.4400 N   0  0  0  0  0  0  0  0  0  0  0  0
   -3.0850   -1.4060  -17.6870 C   0  0  0  0  0  0  0  0  0  0  0  0
   -6.0850   -1.4450  -17.6500 C   0  0  0  0  0  0  0  0  0  0  0  0
   -9.2580   -3.5240  -17.3850 C   0  0  0  0  0  0  0  0  0  0  0  0
   -8.5010   -1.2480  -16.9770 C   0  0  0  0  0  0  0  0  0  0  0  0
   -1.7100   -1.4730  -18.2350 C   0  0  1  0  0  0  0  0  0  0  0  0
   -7.9980   -1.9520  -19.1320 O   0  0  0  0  0  0  0  0  0  0  0  0
   -3.9500   -1.1320  -18.5480 C   0  0  0  0  0  0  0  0  0  0  0  0
   -5.5120   -1.1450  -20.0060 O   0  0  0  0  0  0  0  0  0  0  0  0
   -2.3010   -0.9770  -19.9810 C   0  0  0  0  0  0  0  0  0  0  0  0
   -3.5890   -0.8560  -19.8320 N   0  0  0  0  0  0  0  0  0  0  0  0
   -9.7270   -2.0740  -17.2180 C   0  0  0  0  0  0  0  0  0  0  0  0
    0.3000    1.1590  -18.0710 C   0  0  0  0  0  0  0  0  0  0  0  0
   -8.5300   -3.8620  -16.2340 C   0  0  0  0  0  0  0  0  0  0  0  0
   -0.7810    2.4290  -16.1510 C   0  0  0  0  0  0  0  0  0  0  0  0
   -7.6390   -1.4120  -18.0440 C   0  0  0  0  0  0  0  0  0  0  0  0
   -8.0650   -4.2910  -15.3030 N   0  0  0  0  0  0  0  0  0  0  0  0
   -5.7160   -1.7100  -16.6080 O   0  0  0  0  0  0  0  0  0  0  0  0
    0.2500    0.9590  -16.7980 C   0  0  1  0  0  0  0  0  0  0  0  0
   -0.0070   -0.7990  -15.3870 O   0  0  0  0  0  0  0  0  0  0  0  0
  1  2  1  0
  2 22  1  1
  3  5  1  0
  5 20  2  0
  6 14  1  0
  6 16  1  0
  8  4  1  0
  8  1  1  1
  9 18  2  0
 10  3  1  0
 10  4  2  0
 11  3  1  0
 12 13  2  0
 12  8  1  0
 13 10  1  0
 14  7  1  0
 21 15  1  6
 16 19  3  0
 18  5  1  0
 18  7  1  0
 21  2  1  0
 21 17  1  0
M  END
$$$$

     RDKit          3D

 20 22  0  0  0  0  0  0  0  0999 V2000
   -9.5230   -1.7640  -16.6870 O   0  0  0  0  0  0  0  0  0  0  0  0
   -6.0490   -0.8840  -20.0840 C   0  0  0  0  0  0  0  0  0  0  0  0
   -8.6000   -2.6020  -16.6500 C   0  0  0  0  0  0  0  0  0  0  0  0
   -7.4560   -3.3180  -19.1170 N   0  0  0  0  0  0  0  0  0  0  0  0
   -3.3330   -3.5260  -15.7040 C   0  0  0  0  0  0  0  0  0  0  0  0
   -3.7820   -1.9790  -17.4980 C   0  0  0  0  0  0  0  0  0  0  0  0
   -2.0750   -2.9540  -15.4590 C   0  0  0  0  0  0  0  0  0  0  0  0
   -4.5960   -1.4740  -18.6410 C   0  0  0  0  0  0  0  0  0  0  0  0
   -7.1270   -2.2140  -16.9160 C   0  0  0  0  0  0  0  0  0  0  0  0
   -2.5660   -0.4340  -19.4160 C   0  0  0  0  0  0  0  0  0  0  0  0
   -1.6490   -1.9000  -16.2590 C   0  0  0  0  0  0  0  0  0  0  0  0
   -1.7280    0.2200  -20.5280 C   0  0  0  0  0  0  0  0  0  0  0  0
   -2.4280   -1.4270  -17.3380 C   0  0  0  0  0  0  0  0  0  0  0  0
   -1.8590   -0.7380  -18.3050 N   0  0  0  0  0  0  0  0  0  0  0  0
   -8.8390   -3.7390  -16.2140 O   0  0  0  0  0  0  0  0  0  0  0  0
   -4.1510   -3.0690  -16.6270 C   0  0  0  0  0  0  0  0  0  0  0  0
   -3.9160   -0.6780  -19.5630 C   0  0  0  0  0  0  0  0  0  0  0  0
   -5.8950   -1.6530  -18.9800 N   0  0  0  0  0  0  0  0  0  0  0  0
   -4.8800   -0.3240  -20.4880 N   0  0  0  0  0  0  0  0  0  0  0  0
   -6.9240   -2.4270  -18.4390 C   0  0  0  0  0  0  0  0  0  0  0  0
  1  3  2  0
  2 18  1  0
  3 15  1  0
  4 20  2  0
  5  7  1  0
  6 13  1  0
  6 16  1  0
  8  6  2  0
  9  3  1  0
 10 14  1  0
 11  7  2  0
 12 10  1  0
 13 11  1  0
 14 13  2  0
 16  5  2  0
 17 10  2  0
 17  8  1  0
 18  8  1  0
 18 20  1  0
 19  2  2  0
 19 17  1  0
 20  9  1  0
M  END
$$$$

     RDKit          3D

 19 21  0  0  0  0  0  0  0  0999 V2000
   -2.2470   -2.3000  -19.0470 O   0  0  0  0  0  0  0  0  0  0  0  0
   -9.5490   -2.5260  -17.2020 C   0  0  0  0  0  0  0  0  0  0  0  0
   -1.9610   -0.9960  -18.7540 C   0  0  1  0  0  0  0  0  0  0  0  0
   -1.6450   -2.5280  -16.8340 O   0  0  0  0  0  0  0  0  0  0  0  0
   -7.3170   -2.0010  -17.7790 C   0  0  0  0  0  0  0  0  0  0  0  0
   -4.7990   -1.4500  -18.2770 C   0  0  0  0  0  0  0  0  0  0  0  0
   -3.7620   -2.1770  -17.3640 C   0  0  1  0  0  0  0  0  0  0  0  0
   -4.1570   -2.6890  -16.1910 N   0  0  0  0  0  0  0  0  0  0  0  0
   -0.7730   -1.0710  -17.8410 C   0  0  2  0  0  0  0  0  0  0  0  0
   -1.4080   -1.1430  -16.5670 C   0  0  0  0  0  0  0  0  0  0  0  0
   -2.1120   -0.0210  -19.8630 C   0  0  0  0  0  0  0  0  0  0  0  0
   -2.6220   -2.5020  -17.8370 C   0  0  1  0  0  0  0  0  0  0  0  0
   -5.6710   -2.8280  -16.2560 C   0  0  0  0  0  0  0  0  0  0  0  0
   -5.8900   -1.9400  -17.3750 C   0  0  2  0  0  0  0  0  0  0  0  0
   -7.7740   -1.2940  -18.8130 O   0  0  0  0  0  0  0  0  0  0  0  0
   -6.4830   -3.3120  -15.3440 N   0  0  0  0  0  0  0  0  0  0  0  0
    0.5320   -0.8780  -18.6120 C   0  0  0  0  0  0  0  0  0  0  0  0
   -8.1850   -2.6270  -16.8560 N   0  0  0  0  0  0  0  0  0  0  0  0
   -7.7040   -3.1790  -15.7010 C   0  0  0  0  0  0  0  0  0  0  0  0
  1  3  1  0
  2 18  1  0
  3 11  1  6
  3  9  1  0
  4 10  1  0
  5 14  1  0
  5 18  1  0
  7  6  1  6
  7  8  1  0
  9 17  1  1
  9 10  1  0
 12  1  1  6
 12  7  1  0
 12  4  1  0
 13  8  2  0
 13 16  1  0
 14  6  1  6
 14 13  1  0
 15  5  2  0
 18 19  1  0
 19 16  2  0
M  END
$$$$

     RDKit          3D

 19 20  0  0  0  0  0  0  0  0999 V2000
   -8.3910   -4.2120  -15.6200 O   0  0  0  0  0  0  0  0  0  0  0  0
   -7.5890   -0.6860  -20.3090 O   0  0  0  0  0  0  0  0  0  0  0  0
   -5.8770   -1.8820  -17.2820 C   0  0  0  0  0  0  0  0  0  0  0  0
   -8.1320   -2.0620  -18.2250 O   0  0  0  0  0  0  0  0  0  0  0  0
   -8.5450   -2.2660  -16.8320 C   0  0  0  0  0  0  0  0  0  0  0  0
   -4.1820   -1.1050  -18.8200 C   0  0  0  0  0  0  0  0  0  0  0  0
   -1.9350   -2.9760  -14.2940 C   0  0  0  0  0  0  0  0  0  0  0  0
   -5.0320   -0.7780  -19.8610 C   0  0  0  0  0  0  0  0  0  0  0  0
   -2.2640   -1.1580  -17.5520 C   0  0  0  0  0  0  0  0  0  0  0  0
   -4.4710   -1.5610  -17.6930 C   0  0  0  0  0  0  0  0  0  0  0  0
   -3.0700   -2.7340  -16.5760 C   0  0  0  0  0  0  0  0  0  0  0  0
   -1.8800   -2.4320  -15.8090 C   0  0  0  0  0  0  0  0  0  0  0  0
   -3.3420   -1.5920  -16.8110 N   0  0  0  0  0  0  0  0  0  0  0  0
   -3.1230   -2.6260  -13.6160 O   0  0  0  0  0  0  0  0  0  0  0  0
   -2.7010   -0.9300  -19.0150 C   0  0  0  0  0  0  0  0  0  0  0  0
   -9.0070   -4.3870  -17.7800 O   0  0  0  0  0  0  0  0  0  0  0  0
   -6.5490   -1.0760  -19.5360 C   0  0  0  0  0  0  0  0  0  0  0  0
   -8.7050   -3.7340  -16.7160 C   0  0  0  0  0  0  0  0  0  0  0  0
   -6.8350   -1.7530  -18.3110 C   0  0  0  0  0  0  0  0  0  0  0  0
  2 17  1  0
  4  5  1  0
  5 18  1  0
  6 10  1  0
  7 14  1  0
  8 17  1  0
  8  6  2  0
  9 13  1  0
 10  3  2  0
 10 13  1  0
 11 12  1  0
 12  7  1  0
 13 11  1  0
 15  6  1  0
 15  9  2  0
 16 18  2  0
 17 19  2  0
 18  1  1  0
 19  4  1  0
 19  3  1  0
M  END
$$$$

     RDKit          3D

 20 20  0  0  0  0  0  0  0  0999 V2000
   -1.7910   -1.1300  -18.4520 C   0  0  0  0  0  0  0  0  0  0  0  0
   -2.0910   -3.0240  -17.7160 C   0  0  0  0  0  0  0  0  0  0  0  0
   -7.3510   -2.5050  -18.9350 C   0  0  0  0  0  0  0  0  0  0  0  0
   -1.1880   -3.0860  -16.7160 O   0  0  0  0  0  0  0  0  0  0  0  0
   -6.9430   -3.8720  -14.7060 O   0  0  0  0  0  0  0  0  0  0  0  0
   -8.8890   -3.0820  -15.9670 C   0  0  2  0  0  0  0  0  0  0  0  0
   -3.7060   -2.6110  -15.0450 C   0  0  0  0  0  0  0  0  0  0  0  0
   -6.6840   -2.4080  -16.5190 N   0  0  0  0  0  0  0  0  0  0  0  0
   -4.0300   -2.2230  -16.4170 C   0  0  1  0  0  0  0  0  0  0  0  0
   -3.4170   -3.3230  -17.2850 C   0  0  0  0  0  0  0  0  0  0  0  0
   -3.2950    0.3590  -18.8730 C   0  0  0  0  0  0  0  0  0  0  0  0
   -8.9680   -4.3970  -16.2410 O   0  0  0  0  0  0  0  0  0  0  0  0
   -8.8600   -2.3220  -17.1280 C   0  0  0  0  0  0  0  0  0  0  0  0
   -7.3990   -1.9990  -17.5950 C   0  0  2  0  0  0  0  0  0  0  0  0
   -6.1210   -3.1300  -19.2030 O   0  0  0  0  0  0  0  0  0  0  0  0
   -7.5580   -2.8160  -15.3740 C   0  0  2  0  0  0  0  0  0  0  0  0
   -5.5300   -2.1440  -16.5950 C   0  0  0  0  0  0  0  0  0  0  0  0
   -3.0940   -0.9820  -18.2720 C   0  0  2  0  0  0  0  0  0  0  0  0
   -9.8990   -1.6850  -17.4870 O   0  0  0  0  0  0  0  0  0  0  0  0
   -3.5110   -0.9700  -16.8890 O   0  0  0  0  0  0  0  0  0  0  0  0
 18  1  1  1
  2 10  1  0
  2  4  1  0
  6 12  1  6
  6 16  1  0
  8 16  1  0
  9  7  1  1
 10  9  1  0
 11 18  1  0
 13  6  1  0
 14  3  1  6
 14 13  1  0
 14  8  1  0
 15  3  1  0
 16  5  1  6
 17  8  1  0
 17  9  1  0
 18 20  1  0
 19 13  2  0
 20  9  1  0
M  END
$$$$

     RDKit          3D

 22 23  0  0  0  0  0  0  0  0999 V2000
   -1.7900    0.4560  -18.8360 C   0  0  0  0  0  0  0  0  0  0  0  0
   -7.0410   -3.1900  -16.0370 C   0  0  0  0  0  0  0  0  0  0  0  0
   -0.9220    0.1990  -19.9110 C   0  0  0  0  0  0  0  0  0  0  0  0
   -7.6040   -1.2380  -19.4540 O   0  0  0  0  0  0  0  0  0  0  0  0
   -8.2370   -0.1770  -18.7810 C   0  0  0  0  0  0  0  0  0  0  0  0
   -1.7400   -3.8930  -17.9940 O   0  0  0  0  0  0  0  0  0  0  0  0
   -3.0110   -0.3290  -16.9150 O   0  0  0  0  0  0  0  0  0  0  0  0
   -3.1040   -3.3550  -16.6290 C   0  0  2  0  0  0  0  0  0  0  0  0
   -6.1820   -2.0930  -17.9720 C   0  0  0  0  0  0  0  0  0  0  0  0
   -5.9120   -2.6890  -16.7670 C   0  0  2  0  0  0  0  0  0  0  0  0
   -7.4690   -1.9470  -18.3990 C   0  0  0  0  0  0  0  0  0  0  0  0
   -0.6510   -1.1220  -20.3390 C   0  0  0  0  0  0  0  0  0  0  0  0
   -2.3820   -3.1030  -17.6470 C   0  0  0  0  0  0  0  0  0  0  0  0
   -4.5160   -3.2540  -17.0900 C   0  0  0  0  0  0  0  0  0  0  0  0
   -1.2160   -2.0870  -19.5490 N   0  0  0  0  0  0  0  0  0  0  0  0
   -8.3720   -3.2550  -16.6710 C   0  0  0  0  0  0  0  0  0  0  0  0
   -4.4060   -2.5490  -14.5940 O   0  0  0  0  0  0  0  0  0  0  0  0
   -3.0910   -2.7630  -15.1610 C   0  0  0  0  0  0  0  0  0  0  0  0
   -8.4350   -2.5350  -17.8160 C   0  0  0  0  0  0  0  0  0  0  0  0
   -2.3690   -0.6340  -18.1940 C   0  0  0  0  0  0  0  0  0  0  0  0
   -9.2770   -4.0050  -16.2150 O   0  0  0  0  0  0  0  0  0  0  0  0
   -2.0210   -1.9170  -18.4900 C   0  0  0  0  0  0  0  0  0  0  0  0
  1 20  2  0
  3  1  1  0
  4  5  1  0
  4 11  1  0
  6 13  2  0
  8 14  1  6
  8 18  1  0
  9 10  1  0
 10 14  1  6
 10  2  1  0
 11  9  1  0
 11 19  2  0
 12  3  2  0
 12 15  1  0
 13  8  1  0
 15 22  2  0
 16 21  2  0
 16  2  1  0
 18 17  1  0
 19 16  1  0
 20  7  1  0
 22 20  1  0
 22 13  1  0
M  END
$$$$

     RDKit          3D

 18 19  0  0  0  0  0  0  0  0999 V2000
   -2.5630   -3.1730  -15.3020 C   0  0  0  0  0  0  0  0  0  0  0  0
   -6.8610   -1.6890  -19.0580 C   0  0  0  0  0  0  0  0  0  0  0  0
   -2.3890   -2.1840  -17.8980 C   0  0  0  0  0  0  0  0  0  0  0  0
   -6.7670   -2.9090  -15.6800 O   0  0  0  0  0  0  0  0  0  0  0  0
   -1.2520   -2.5970  -17.1860 C   0  0  0  0  0  0  0  0  0  0  0  0
   -4.8440   -1.8440  -18.0560 C   0  0  0  0  0  0  0  0  0  0  0  0
   -9.4620   -1.4650  -16.7710 C   0  0  0  0  0  0  0  0  0  0  0  0
   -3.9060    0.2140  -20.9920 O   0  0  0  0  0  0  0  0  0  0  0  0
   -9.2730   -3.8430  -16.6600 C   0  0  0  0  0  0  0  0  0  0  0  0
   -8.5430   -2.6230  -16.9840 N   0  0  0  0  0  0  0  0  0  0  0  0
   -1.3130   -3.0950  -15.9570 C   0  0  0  0  0  0  0  0  0  0  0  0
   -3.7660   -0.5710  -19.9870 C   0  0  0  0  0  0  0  0  0  0  0  0
   -3.6250   -2.2940  -17.2950 C   0  0  0  0  0  0  0  0  0  0  0  0
   -3.7010   -2.7920  -15.9970 C   0  0  0  0  0  0  0  0  0  0  0  0
   -7.2000   -2.5330  -16.7480 C   0  0  0  0  0  0  0  0  0  0  0  0
   -4.7420   -1.1050  -19.2560 C   0  0  0  0  0  0  0  0  0  0  0  0
   -6.3290   -2.0740  -17.8720 C   0  0  1  0  0  0  0  0  0  0  0  0
   -5.9850   -1.0400  -19.8690 N   0  0  0  0  0  0  0  0  0  0  0  0
  2 17  1  0
  3 13  1  0
  3  5  2  0
  5 11  1  0
  6 17  1  0
  6 13  1  0
  8 12  2  0
 10  7  1  0
 10 15  1  0
 10  9  1  0
 11  1  2  0
 12 16  1  0
 13 14  2  0
 14  1  1  0
 15  4  2  0
 16  6  2  0
 17 15  1  1
 18 16  1  0
 18  2  1  0
M  END
$$$$

     RDKit          3D

 15 15  0  0  0  0  0  0  0  0999 V2000
   -7.9600   -3.1060  -15.7240 O   0  0  0  0  0  0  0  0  0  0  0  0
   -1.5680   -0.7710  -16.9330 O   0  0  0  0  0  0  0  0  0  0  0  0
   -6.1140   -1.2480  -18.0760 N   0  0  0  0  0  0  0  0  0  0  0  0
   -8.6010   -2.9950  -16.8280 C   0  0  0  0  0  0  0  0  0  0  0  0
   -6.9180   -2.9440  -19.4410 O   0  0  0  0  0  0  0  0  0  0  0  0
   -2.7600   -1.3560  -16.8070 C   0  0  0  0  0  0  0  0  0  0  0  0
   -4.0400   -2.9720  -15.6530 C   0  0  0  0  0  0  0  0  0  0  0  0
   -7.0450   -2.0860  -18.5870 C   0  0  0  0  0  0  0  0  0  0  0  0
   -4.9890   -1.6250  -17.4350 C   0  0  0  0  0  0  0  0  0  0  0  0
   -9.4430   -3.8430  -17.2140 O   0  0  0  0  0  0  0  0  0  0  0  0
   -2.9320   -2.3650  -15.7860 C   0  0  0  0  0  0  0  0  0  0  0  0
   -3.8330   -1.0040  -17.6480 C   0  0  0  0  0  0  0  0  0  0  0  0
   -1.6570   -2.8390  -14.8260 Cl  0  0  0  0  0  0  0  0  0  0  0  0
   -5.1780   -2.6420  -16.4570 C   0  0  0  0  0  0  0  0  0  0  0  0
   -8.2780   -1.9850  -17.7660 C   0  0  0  0  0  0  0  0  0  0  0  0
  2  6  1  0
  3  9  1  0
  4  1  1  0
  5  8  2  0
  6 11  2  0
  8  3  1  0
  8 15  1  0
  9 14  1  0
 10  4  2  0
 11  7  1  0
 11 13  1  0
 12  9  2  0
 12  6  1  0
 14  7  2  0
 15  4  1  0
M  END
$$$$

     RDKit          3D

 20 22  0  0  0  0  0  0  0  0999 V2000
   -2.4570   -2.7880  -17.0100 C   0  0  0  0  0  0  0  0  0  0  0  0
   -6.0910   -0.7700  -19.0870 C   0  0  0  0  0  0  0  0  0  0  0  0
   -7.4600   -2.9040  -16.5380 C   0  0  0  0  0  0  0  0  0  0  0  0
   -8.6690   -2.3510  -17.0250 C   0  0  0  0  0  0  0  0  0  0  0  0
   -3.6160   -1.1570  -18.3950 C   0  0  0  0  0  0  0  0  0  0  0  0
   -4.9140   -2.5780  -17.0270 C   0  0  0  0  0  0  0  0  0  0  0  0
   -6.3460   -2.3040  -17.1340 C   0  0  0  0  0  0  0  0  0  0  0  0
   -6.1140   -3.9850  -15.0190 O   0  0  0  0  0  0  0  0  0  0  0  0
   -8.2200   -4.4720  -14.8880 O   0  0  0  0  0  0  0  0  0  0  0  0
   -3.7270   -2.2050  -17.5340 C   0  0  0  0  0  0  0  0  0  0  0  0
   -0.2740   -1.8530  -18.1860 C   0  0  0  0  0  0  0  0  0  0  0  0
   -6.8580   -1.4200  -18.0900 C   0  0  0  0  0  0  0  0  0  0  0  0
   -1.7560   -0.5840  -19.8800 C   0  0  0  0  0  0  0  0  0  0  0  0
   -7.3020   -3.7920  -15.3780 C   0  0  0  0  0  0  0  0  0  0  0  0
   -2.5680   -0.3740  -18.7630 O   0  0  0  0  0  0  0  0  0  0  0  0
   -0.2700   -0.9180  -19.4130 C   0  0  0  0  0  0  0  0  0  0  0  0
   -8.2630   -1.4400  -18.0250 C   0  0  0  0  0  0  0  0  0  0  0  0
   -2.4880   -3.7800  -15.8660 C   0  0  0  0  0  0  0  0  0  0  0  0
   -1.2220   -2.4460  -17.5310 C   0  0  0  0  0  0  0  0  0  0  0  0
   -4.7180   -0.7180  -19.1630 C   0  0  0  0  0  0  0  0  0  0  0  0
  1 18  1  0
  2 12  1  0
  3 14  1  0
  4  3  2  0
  5 10  2  0
  7  6  2  0
  7  3  1  0
 10  6  1  0
 10  1  1  0
 11 19  2  0
 12 17  2  0
 12  7  1  0
 13 16  1  0
 13 15  1  0
 14  8  2  0
 14  9  1  0
 15  5  1  0
 16 11  1  0
 17  4  1  0
 19  1  2  0
 20  2  2  0
 20  5  1  0
M  END
$$$$

     RDKit          3D

 21 23  0  0  0  0  0  0  0  0999 V2000
   -2.0160   -2.0020  -19.1200 C   0  0  0  0  0  0  0  0  0  0  0  0
   -4.7040   -2.7430  -16.2180 C   0  0  0  0  0  0  0  0  0  0  0  0
   -7.2250   -2.4470  -17.5170 C   0  0  1  0  0  0  0  0  0  0  0  0
   -1.3860   -2.9410  -16.8580 C   0  0  0  0  0  0  0  0  0  0  0  0
   -7.1630   -3.0640  -16.0340 C   0  0  0  0  0  0  0  0  0  0  0  0
   -2.8900   -1.8280  -17.7630 C   0  0  2  0  0  0  0  0  0  0  0  0
   -8.5230   -1.5390  -17.0390 C   0  0  1  0  0  0  0  0  0  0  0  0
   -2.5840   -2.8550  -17.1570 C   0  0  2  0  0  0  0  0  0  0  0  0
   -5.0280   -1.9200  -17.2250 C   0  0  0  0  0  0  0  0  0  0  0  0
   -4.0140   -1.3090  -17.7770 C   0  0  0  0  0  0  0  0  0  0  0  0
   -6.1780   -1.3030  -19.1780 O   0  0  0  0  0  0  0  0  0  0  0  0
    0.8330   -1.0020  -18.6370 C   0  0  0  0  0  0  0  0  0  0  0  0
   -8.9340   -0.8460  -18.0220 O   0  0  0  0  0  0  0  0  0  0  0  0
   -6.3460   -1.4980  -17.8120 C   0  0  1  0  0  0  0  0  0  0  0  0
   -7.5620   -3.0020  -18.8130 C   0  0  0  0  0  0  0  0  0  0  0  0
   -3.4260   -3.0050  -16.1590 N   0  0  0  0  0  0  0  0  0  0  0  0
   -5.9200   -3.2320  -15.3150 C   0  0  0  0  0  0  0  0  0  0  0  0
   -0.4500   -2.5530  -17.6450 C   0  0  2  0  0  0  0  0  0  0  0  0
    0.1490   -1.5260  -17.5200 C   0  0  0  0  0  0  0  0  0  0  0  0
   -9.4130   -2.1500  -16.5130 O   0  0  0  0  0  0  0  0  0  0  0  0
   -0.8270   -2.7030  -19.0060 O   0  0  0  0  0  0  0  0  0  0  0  0
  1 21  1  0
  2 16  1  0
  2 17  1  0
  3 15  1  6
  3  7  1  0
  3  5  1  0
  5 17  1  0
  6  1  1  6
  6  8  1  0
  7 20  1  6
  8  4  1  1
  8 16  1  0
  9  2  2  0
 10  6  1  0
 10  9  1  0
 12 19  1  0
 13  7  1  0
 14 11  1  6
 14  3  1  0
 14  9  1  0
 18 19  1  1
 18  4  1  0
 21 18  1  0
M  END
$$$$

     RDKit          3D

 19 19  0  0  0  0  0  0  0  0999 V2000
   -2.9370   -1.9230  -18.0370 C   0  0  2  0  0  0  0  0  0  0  0  0
   -1.8740   -1.3110  -20.4210 O   0  0  0  0  0  0  0  0  0  0  0  0
   -8.2860   -2.9200  -16.5480 N   0  0  0  0  0  0  0  0  0  0  0  0
   -1.1550   -3.1340  -15.7240 O   0  0  0  0  0  0  0  0  0  0  0  0
   -8.2170   -2.2210  -17.5950 C   0  0  0  0  0  0  0  0  0  0  0  0
   -4.0640   -1.6390  -16.9170 C   0  0  0  0  0  0  0  0  0  0  0  0
   -6.0540   -2.0260  -17.8850 N   0  0  0  0  0  0  0  0  0  0  0  0
   -7.1280   -0.9510  -19.4720 F   0  0  0  0  0  0  0  0  0  0  0  0
   -1.6080   -1.7350  -17.3610 C   0  0  0  0  0  0  0  0  0  0  0  0
   -4.6120   -1.1420  -19.9670 O   0  0  0  0  0  0  0  0  0  0  0  0
   -7.1670   -1.7330  -18.2120 C   0  0  0  0  0  0  0  0  0  0  0  0
   -7.2390   -3.2600  -15.7890 C   0  0  0  0  0  0  0  0  0  0  0  0
   -3.0790   -0.8390  -19.4450 P   0  0  1  0  0  0  0  0  0  0  0  0
   -2.6120    0.5870  -19.3200 O   0  0  0  0  0  0  0  0  0  0  0  0
   -5.3860   -2.2630  -16.7940 C   0  0  2  0  0  0  0  0  0  0  0  0
   -7.6430   -4.0620  -14.8760 O   0  0  0  0  0  0  0  0  0  0  0  0
   -1.7560   -4.0990  -17.6800 O   0  0  0  0  0  0  0  0  0  0  0  0
   -1.3270   -3.0020  -16.9430 C   0  0  0  0  0  0  0  0  0  0  0  0
   -5.9070   -2.8650  -15.6480 C   0  0  0  0  0  0  0  0  0  0  0  0
  1  9  1  1
  1  6  1  0
  2 13  2  0
  3 12  1  0
  5  3  1  0
  7 15  1  0
  8 11  1  0
  9 18  1  0
 13 10  1  6
 11  7  1  0
 11  5  2  0
 12 19  1  0
 12 16  2  0
 13 14  1  0
 13  1  1  0
 15  6  1  1
 15 19  1  0
 17 18  2  0
 18  4  1  0
M  END
$$$$

     RDKit          3D

 20 22  0  0  0  0  0  0  0  0999 V2000
   -0.5500   -0.6380  -20.3360 C   0  0  0  0  0  0  0  0  0  0  0  0
   -5.9510   -2.3680  -17.2780 C   0  0  2  0  0  0  0  0  0  0  0  0
   -2.4110   -1.5080  -18.3350 C   0  0  1  0  0  0  0  0  0  0  0  0
   -7.7960   -3.0550  -14.7540 O   0  0  0  0  0  0  0  0  0  0  0  0
   -3.6930   -1.4550  -17.9290 N   0  0  0  0  0  0  0  0  0  0  0  0
   -5.0960   -3.2590  -15.5220 O   0  0  0  0  0  0  0  0  0  0  0  0
   -8.8280   -1.5790  -16.3550 O   0  0  0  0  0  0  0  0  0  0  0  0
   -9.0970   -4.0160  -16.6130 N   0  0  0  0  0  0  0  0  0  0  0  0
   -5.8280   -1.9720  -18.7530 C   0  0  0  0  0  0  0  0  0  0  0  0
   -1.6280   -0.2750  -20.1580 C   0  0  0  0  0  0  0  0  0  0  0  0
   -4.6780   -1.3620  -18.8220 C   0  0  2  0  0  0  0  0  0  0  0  0
    0.9060   -1.2230  -19.6540 F   0  0  0  0  0  0  0  0  0  0  0  0
   -4.0280   -1.7180  -16.8270 N   0  0  0  0  0  0  0  0  0  0  0  0
   -8.2940   -2.8580  -16.0490 S   0  0  2  0  0  0  0  0  0  0  0  0
   -4.8330   -2.4450  -16.6400 C   0  0  0  0  0  0  0  0  0  0  0  0
   -6.8260   -2.9990  -16.9880 N   0  0  0  0  0  0  0  0  0  0  0  0
   -0.0230   -1.5160  -19.2930 C   0  0  1  0  0  0  0  0  0  0  0  0
   -1.0610   -1.8420  -18.2830 C   0  0  0  0  0  0  0  0  0  0  0  0
   -4.0520   -0.8710  -20.1260 O   0  0  0  0  0  0  0  0  0  0  0  0
   -2.6610   -1.2120  -19.7910 C   0  0  2  0  0  0  0  0  0  0  0  0
  1 10  1  0
  1 17  1  0
  2 16  1  6
  2 15  1  0
  3 18  1  6
  3  5  1  0
  5 13  1  0
  7 14  2  0
 14  8  1  6
  9  2  1  0
 11  9  1  6
 11  5  1  0
 13 15  1  0
 14  4  2  0
 15  6  2  0
 16 14  1  0
 17 12  1  1
 17 18  1  0
 19 20  1  0
 19 11  1  0
 20 10  1  1
 20  3  1  0
M  END
$$$$

     RDKit          3D

 19 19  0  0  0  0  0  0  0  0999 V2000
   -9.1980   -2.5760  -16.8060 C   0  0  0  0  0  0  0  0  0  0  0  0
   -7.8020   -4.3920  -15.0390 O   0  0  0  0  0  0  0  0  0  0  0  0
   -1.6400   -0.2650  -19.2740 C   0  0  2  0  0  0  0  0  0  0  0  0
   -6.6050   -1.0470  -19.4250 O   0  0  0  0  0  0  0  0  0  0  0  0
   -9.8570   -3.6030  -17.6630 C   0  0  0  0  0  0  0  0  0  0  0  0
   -1.5860   -3.8690  -17.8530 O   0  0  0  0  0  0  0  0  0  0  0  0
   -7.6890   -2.3900  -16.5560 C   0  0  2  0  0  0  0  0  0  0  0  0
   -6.5030   -2.2320  -17.3640 C   0  0  1  0  0  0  0  0  0  0  0  0
   -1.0090   -1.1700  -18.1480 C   0  0  0  0  0  0  0  0  0  0  0  0
   -5.1750   -2.6060  -16.7630 C   0  0  0  0  0  0  0  0  0  0  0  0
   -7.7410   -3.5990  -15.7500 C   0  0  0  0  0  0  0  0  0  0  0  0
   -3.1980   -0.2930  -19.1910 C   0  0  0  0  0  0  0  0  0  0  0  0
   -1.8850   -2.2450  -16.0350 O   0  0  0  0  0  0  0  0  0  0  0  0
   -6.9100   -3.1890  -19.5050 O   0  0  0  0  0  0  0  0  0  0  0  0
   -2.1090   -2.5040  -17.5890 S   0  0  2  0  0  0  0  0  0  0  0  0
   -4.0690   -2.5750  -17.9010 C   0  0  2  0  0  0  0  0  0  0  0  0
   -1.3650   -0.7880  -20.5650 O   0  0  0  0  0  0  0  0  0  0  0  0
   -6.5900   -1.9980  -18.8470 C   0  0  0  0  0  0  0  0  0  0  0  0
   -3.9140   -1.1590  -18.1690 C   0  0  0  0  0  0  0  0  0  0  0  0
  3 17  1  6
  3 12  1  0
  3  9  1  0
  4 18  1  0
  5  1  1  0
  6 15  2  0
  7  1  1  6
  7 11  1  0
  8 10  1  6
  8  7  1  0
 15  9  1  6
 11  2  1  0
 12 19  1  0
 14 18  2  0
 15 13  2  0
 16 15  1  0
 16 10  1  1
 18  8  1  0
 19 16  1  0
M  END
$$$$

     RDKit          3D

 21 23  0  0  0  0  0  0  0  0999 V2000
    0.2600   -1.1930  -15.7770 C   0  0  0  0  0  0  0  0  0  0  0  0
   -7.2940   -1.6710  -18.7150 N   0  0  0  0  0  0  0  0  0  0  0  0
    1.1730   -0.0550  -17.4780 O   0  0  0  0  0  0  0  0  0  0  0  0
    0.0400   -2.3640  -18.0400 C   0  0  1  0  0  0  0  0  0  0  0  0
   -6.6960   -2.8140  -16.6710 C   0  0  2  0  0  0  0  0  0  0  0  0
   -8.7470   -4.1700  -17.0140 C   0  0  0  0  0  0  0  0  0  0  0  0
   -4.3680   -0.8880  -18.7570 C   0  0  0  0  0  0  0  0  0  0  0  0
   -6.4480   -2.0980  -17.8500 C   0  0  0  0  0  0  0  0  0  0  0  0
   -5.4490   -3.2320  -16.1470 N   0  0  0  0  0  0  0  0  0  0  0  0
   -5.0590   -1.8760  -17.9590 N   0  0  0  0  0  0  0  0  0  0  0  0
   -4.4000   -2.7410  -16.9790 C   0  0  2  0  0  0  0  0  0  0  0  0
    0.9840   -1.1400  -18.4890 C   0  0  0  0  0  0  0  0  0  0  0  0
    0.2620   -2.4120  -16.5900 C   0  0  0  0  0  0  0  0  0  0  0  0
   -9.0240   -1.9530  -16.3450 C   0  0  0  0  0  0  0  0  0  0  0  0
   -3.0240   -3.1020  -17.3880 C   0  0  0  0  0  0  0  0  0  0  0  0
   -2.9910   -0.7620  -18.0670 C   0  0  0  0  0  0  0  0  0  0  0  0
   -8.0940   -3.1300  -16.2130 C   0  0  2  0  0  0  0  0  0  0  0  0
   -8.0950   -3.6340  -14.8210 O   0  0  0  0  0  0  0  0  0  0  0  0
    1.0210   -0.0150  -16.3300 C   0  0  0  0  0  0  0  0  0  0  0  0
   -1.3460   -2.2800  -18.6360 C   0  0  0  0  0  0  0  0  0  0  0  0
   -2.3120   -1.9430  -17.6210 N   0  0  0  0  0  0  0  0  0  0  0  0
  2  8  2  0
  3 19  1  0
  4 20  1  1
  4 13  1  0
  5 17  1  0
  5  9  1  6
 17  6  1  6
  7 16  1  0
  7 10  1  0
  8  5  1  0
 10  8  1  0
 10 11  1  0
 11 15  1  6
 11  9  1  0
 12  4  1  0
 12  3  1  0
 13  1  1  0
 14 17  1  0
 16 21  1  0
 17 18  1  0
 19  1  1  0
 20 21  1  0
 21 15  1  0
M  END
$$$$

     RDKit          3D

 23 25  0  0  0  0  0  0  0  0999 V2000
   -5.5260   -1.4760  -18.6600 N   0  0  0  0  0  0  0  0  0  0  0  0
   -0.8100    0.4790  -17.5540 C   0  0  0  0  0  0  0  0  0  0  0  0
   -4.5400   -2.4280  -16.1430 C   0  0  0  0  0  0  0  0  0  0  0  0
   -0.5350   -1.2480  -15.9120 C   0  0  0  0  0  0  0  0  0  0  0  0
   -6.3360   -2.0270  -17.5830 C   0  0  0  0  0  0  0  0  0  0  0  0
   -0.6760   -1.1160  -19.3660 P   0  0  1  0  0  0  0  0  0  0  0  0
   -2.7960   -0.6630  -16.8120 C   0  0  0  0  0  0  0  0  0  0  0  0
   -8.0300   -2.7870  -16.5070 N   0  0  0  0  0  0  0  0  0  0  0  0
   -7.6440   -2.0290  -17.5280 C   0  0  0  0  0  0  0  0  0  0  0  0
   -7.0130   -3.2910  -15.9290 C   0  0  0  0  0  0  0  0  0  0  0  0
   -5.8790   -2.6300  -16.5360 C   0  0  2  0  0  0  0  0  0  0  0  0
   -1.1320   -1.4890  -20.7180 O   0  0  0  0  0  0  0  0  0  0  0  0
   -1.5550   -2.1940  -18.5450 O   0  0  0  0  0  0  0  0  0  0  0  0
   -3.7550   -1.7050  -17.0900 C   0  0  2  0  0  0  0  0  0  0  0  0
   -8.5470   -1.5030  -18.2330 O   0  0  0  0  0  0  0  0  0  0  0  0
   -6.9580   -4.0630  -14.9810 O   0  0  0  0  0  0  0  0  0  0  0  0
   -1.4970   -2.9120  -17.3230 C   0  0  0  0  0  0  0  0  0  0  0  0
    0.6870   -1.6160  -19.0800 O   0  0  0  0  0  0  0  0  0  0  0  0
   -4.1970   -1.4430  -18.3330 C   0  0  0  0  0  0  0  0  0  0  0  0
   -0.8990    0.3350  -18.9990 O   0  0  0  0  0  0  0  0  0  0  0  0
   -1.5090   -0.2260  -16.4520 C   0  0  2  0  0  0  0  0  0  0  0  0
   -1.1840   -2.5320  -16.0790 O   0  0  0  0  0  0  0  0  0  0  0  0
   -1.6480   -4.1480  -17.4960 O   0  0  0  0  0  0  0  0  0  0  0  0
  1 19  1  0
  2 21  1  0
  5  1  1  0
  5  9  1  0
  5 11  1  0
  6 12  2  0
  6 18  1  6
  6 20  1  0
  6 13  1  0
  8 10  1  0
  9  8  1  0
 10 16  2  0
 11  3  1  1
 11 10  1  0
 13 17  1  0
 14  7  1  1
 14  3  1  0
 15  9  2  0
 17 22  1  0
 19 14  1  0
 20  2  1  0
 21  7  1  6
 21  4  1  0
 22  4  1  0
 23 17  2  0
M  END
$$$$

     RDKit          3D

 20 24  0  0  0  0  0  0  0  0999 V2000
   -6.1550   -2.6080  -16.5530 C   0  0  0  0  0  0  0  0  0  0  0  0
   -1.3180   -3.2720  -17.2950 O   0  0  0  0  0  0  0  0  0  0  0  0
   -0.5220   -1.1990  -17.8160 C   0  0  0  0  0  0  0  0  0  0  0  0
   -3.9600   -1.9110  -17.3430 C   0  0  0  0  0  0  0  0  0  0  0  0
   -6.4780   -1.9640  -17.5350 C   0  0  0  0  0  0  0  0  0  0  0  0
   -8.8460   -4.1460  -16.7750 C   0  0  0  0  0  0  0  0  0  0  0  0
   -5.7770   -1.2300  -18.3990 N   0  0  0  0  0  0  0  0  0  0  0  0
   -4.7540   -2.5750  -16.4570 C   0  0  0  0  0  0  0  0  0  0  0  0
   -7.8430   -1.9380  -17.7660 C   0  0  2  0  0  0  0  0  0  0  0  0
   -1.9400   -1.2870  -18.3650 C   0  0  1  0  0  0  0  0  0  0  0  0
   -7.0020   -3.1910  -15.5150 C   0  0  2  0  0  0  0  0  0  0  0  0
   -6.8750   -4.4980  -14.9280 O   0  0  0  0  0  0  0  0  0  0  0  0
   -1.6480   -2.1630  -15.2840 O   0  0  0  0  0  0  0  0  0  0  0  0
   -8.8340   -1.0970  -17.7370 C   0  0  0  0  0  0  0  0  0  0  0  0
   -8.9220   -2.0570  -16.7140 C   0  0  0  0  0  0  0  0  0  0  0  0
   -1.0170   -2.3910  -18.4200 C   0  0  2  0  0  0  0  0  0  0  0  0
   -1.7580   -2.4630  -16.5130 C   0  0  0  0  0  0  0  0  0  0  0  0
   -2.6620   -1.5020  -17.2680 C   0  0  2  0  0  0  0  0  0  0  0  0
   -8.5810   -3.2090  -15.8290 N   0  0  0  0  0  0  0  0  0  0  0  0
   -4.5190   -1.2120  -18.2920 C   0  0  0  0  0  0  0  0  0  0  0  0
  1  8  1  0
  1 11  1  0
  2 17  1  0
  4  8  2  0
  5  1  2  0
  6 19  1  0
  7 20  2  0
  7  5  1  0
  9 14  1  1
  9  5  1  0
  9 15  1  0
 10  3  1  1
 10 18  1  0
 11 12  1  6
 15 14  1  0
 15 19  1  0
 16 10  1  0
 16  3  1  1
 16  2  1  0
 17 13  2  0
 18  4  1  6
 18 17  1  0
 19 11  1  0
 20  4  1  0
M  END
$$$$

     RDKit          3D

 20 22  0  0  0  0  0  0  0  0999 V2000
   -7.2380   -1.1200  -19.9560 O   0  0  0  0  0  0  0  0  0  0  0  0
   -1.0690    0.4880  -19.9000 C   0  0  0  0  0  0  0  0  0  0  0  0
   -7.2500   -3.9140  -15.2030 O   0  0  0  0  0  0  0  0  0  0  0  0
   -4.6680   -1.3220  -17.8540 C   0  0  0  0  0  0  0  0  0  0  0  0
   -0.4490   -1.3880  -17.0230 N   0  0  0  0  0  0  0  0  0  0  0  0
   -6.7700   -1.3470  -18.9120 C   0  0  0  0  0  0  0  0  0  0  0  0
   -8.8550   -1.4820  -17.6520 C   0  0  0  0  0  0  0  0  0  0  0  0
   -5.7140   -1.0010  -18.9060 N   0  0  0  0  0  0  0  0  0  0  0  0
   -2.7010   -0.2770  -20.0610 S   0  0  0  0  0  0  0  0  0  0  0  0
   -9.0250   -3.3460  -16.2280 N   0  0  0  0  0  0  0  0  0  0  0  0
   -9.5810   -2.7170  -17.3660 C   0  0  0  0  0  0  0  0  0  0  0  0
   -6.9870   -2.5740  -16.7120 N   0  0  0  0  0  0  0  0  0  0  0  0
   -2.2710   -1.5600  -19.0150 C   0  0  2  0  0  0  0  0  0  0  0  0
    0.3200   -0.5990  -18.0240 C   0  0  0  0  0  0  0  0  0  0  0  0
   -1.8650   -1.3420  -16.4420 C   0  0  0  0  0  0  0  0  0  0  0  0
   -7.4220   -1.8410  -17.8120 C   0  0  2  0  0  0  0  0  0  0  0  0
   -3.6020   -2.0770  -18.3280 C   0  0  1  0  0  0  0  0  0  0  0  0
    0.0560   -0.2890  -19.5360 C   0  0  0  0  0  0  0  0  0  0  0  0
   -7.7930   -3.2870  -16.0800 C   0  0  0  0  0  0  0  0  0  0  0  0
   -2.3540   -1.7680  -17.4910 C   0  0  1  0  0  0  0  0  0  0  0  0
  1  6  2  0
  2 18  1  0
  5 15  1  0
  6  8  1  0
  7 11  1  0
  8  4  1  0
  9  2  1  0
 10 19  1  0
 11 10  1  0
 12 19  1  0
 13  9  1  1
 13 17  1  0
 13 20  1  0
 14  5  1  0
 16  6  1  1
 16  7  1  0
 16 12  1  0
 17  4  1  1
 17 20  1  0
 18 14  1  0
 19  3  2  0
 20 15  1  1
M  END
$$$$

     RDKit          3D

 21 24  0  0  0  0  0  0  0  0999 V2000
   -9.5460   -1.3200  -17.6210 C   0  0  0  0  0  0  0  0  0  0  0  0
   -8.1270   -2.2260  -16.4180 O   0  0  0  0  0  0  0  0  0  0  0  0
   -8.8970   -3.2960  -17.2050 C   0  0  2  0  0  0  0  0  0  0  0  0
   -4.6220   -2.6720  -17.7460 C   0  0  2  0  0  0  0  0  0  0  0  0
   -4.0540   -3.3470  -16.4030 C   0  0  0  0  0  0  0  0  0  0  0  0
   -9.3610   -4.6400  -16.4250 F   0  0  0  0  0  0  0  0  0  0  0  0
   -4.9410   -1.0420  -19.4210 C   0  0  2  0  0  0  0  0  0  0  0  0
   -4.1990   -1.4430  -18.0080 C   0  0  2  0  0  0  0  0  0  0  0  0
   -2.1550   -1.6410  -16.2200 C   0  0  0  0  0  0  0  0  0  0  0  0
   -3.7630   -0.7470  -20.3400 O   0  0  0  0  0  0  0  0  0  0  0  0
   -6.0780   -0.7610  -19.5460 C   0  0  0  0  0  0  0  0  0  0  0  0
   -7.7580   -3.4200  -16.3930 C   0  0  0  0  0  0  0  0  0  0  0  0
   -3.1030   -0.7740  -17.0930 C   0  0  1  0  0  0  0  0  0  0  0  0
  -10.0050   -2.9120  -17.0700 C   0  0  0  0  0  0  0  0  0  0  0  0
   -8.0870   -1.2550  -17.2270 C   0  0  1  0  0  0  0  0  0  0  0  0
   -5.9460   -2.5120  -17.5080 N   0  0  0  0  0  0  0  0  0  0  0  0
   -7.4010   -1.9730  -18.0460 C   0  0  2  0  0  0  0  0  0  0  0  0
   -2.5980    0.5450  -17.3430 O   0  0  0  0  0  0  0  0  0  0  0  0
   -2.8910   -3.0800  -15.9020 C   0  0  0  0  0  0  0  0  0  0  0  0
   -6.3700   -1.1540  -18.3370 C   0  0  2  0  0  0  0  0  0  0  0  0
   -6.8200   -4.0620  -15.4140 O   0  0  0  0  0  0  0  0  0  0  0  0
 15  1  1  6
  1 14  1  0
  2 12  1  0
  3 14  1  0
  3  6  1  1
  3 12  1  0
  4 16  1  0
  4  5  1  1
  5 19  1  0
  7 10  1  1
  8  7  1  6
  8  4  1  0
  8 13  1  0
  9 19  1  0
 11  7  1  0
 20 11  1  6
 12 21  2  0
 13  9  1  0
 15  2  1  0
 17 16  1  1
 17 15  1  0
 13 18  1  6
 20 17  1  0
 20 16  1  0
M  END
$$$$

     RDKit          3D

 22 26  0  0  0  0  0  0  0  0999 V2000
   -0.8790   -2.8010  -16.7930 O   0  0  0  0  0  0  0  0  0  0  0  0
   -9.7210   -2.3420  -17.1370 C   0  0  0  0  0  0  0  0  0  0  0  0
   -4.9480   -2.1780  -17.3840 N   0  0  0  0  0  0  0  0  0  0  0  0
   -5.5190   -3.3800  -15.6270 O   0  0  0  0  0  0  0  0  0  0  0  0
   -6.3000   -2.1250  -17.7200 C   0  0  1  0  0  0  0  0  0  0  0  0
   -7.6120   -2.0540  -16.9200 C   0  0  2  0  0  0  0  0  0  0  0  0
   -1.9300   -0.6400  -20.0370 C   0  0  0  0  0  0  0  0  0  0  0  0
   -2.1700   -2.5440  -16.9520 C   0  0  2  0  0  0  0  0  0  0  0  0
   -4.5430   -0.6390  -20.3640 C   0  0  0  0  0  0  0  0  0  0  0  0
   -9.8290   -0.8960  -17.0850 C   0  0  0  0  0  0  0  0  0  0  0  0
   -3.2550    0.0840  -19.9230 C   0  0  1  0  0  0  0  0  0  0  0  0
   -4.6090   -2.9100  -16.2340 C   0  0  0  0  0  0  0  0  0  0  0  0
   -8.5830   -2.9840  -17.0960 C   0  0  1  0  0  0  0  0  0  0  0  0
   -7.1670   -1.2480  -18.4710 C   0  0  1  0  0  0  0  0  0  0  0  0
   -2.7000   -3.1680  -14.6250 C   0  0  0  0  0  0  0  0  0  0  0  0
   -8.5120   -3.9330  -15.9490 O   0  0  0  0  0  0  0  0  0  0  0  0
   -1.4910   -0.6910  -18.5170 C   0  0  0  0  0  0  0  0  0  0  0  0
   -4.2770   -0.5200  -18.9910 C   0  0  2  0  0  0  0  0  0  0  0  0
   -8.6520   -0.7140  -18.1020 C   0  0  0  0  0  0  0  0  0  0  0  0
   -3.9560   -1.5270  -18.1210 C   0  0  0  0  0  0  0  0  0  0  0  0
   -2.5050   -1.6720  -17.9290 C   0  0  0  0  0  0  0  0  0  0  0  0
   -3.1620   -2.8970  -15.9370 C   0  0  2  0  0  0  0  0  0  0  0  0
  2 13  1  0
  2 10  1  0
  3 12  1  0
  5  3  1  1
  5  6  1  0
 11  7  1  6
  7 17  1  0
  8  1  1  1
  8 22  1  0
  9 11  1  0
 18  9  1  6
 11 18  1  0
 12 22  1  0
 12  4  2  0
  6 13  1  6
 13 16  1  1
 14 19  1  1
 14  5  1  0
 14  6  1  0
 17 21  1  0
 18 20  1  0
 19 10  1  0
 20 21  2  0
 20  3  1  0
 21  8  1  0
 22 15  1  1
M  END
$$$$

     RDKit          3D

 20 22  0  0  0  0  0  0  0  0999 V2000
   -7.2930   -1.8570  -17.5540 C   0  0  0  0  0  0  0  0  0  0  0  0
   -8.1430   -4.1300  -15.2410 C   0  0  0  0  0  0  0  0  0  0  0  0
   -0.6040   -2.7660  -15.6510 O   0  0  0  0  0  0  0  0  0  0  0  0
   -1.8970   -1.9590  -18.7940 C   0  0  0  0  0  0  0  0  0  0  0  0
   -5.2560   -1.4600  -18.7660 C   0  0  0  0  0  0  0  0  0  0  0  0
   -0.3100   -0.7940  -18.1160 C   0  0  1  0  0  0  0  0  0  0  0  0
   -1.2740   -2.4000  -16.5840 C   0  0  0  0  0  0  0  0  0  0  0  0
   -1.3860    0.2480  -17.8980 C   0  0  0  0  0  0  0  0  0  0  0  0
   -5.8020   -3.9810  -15.0710 N   0  0  0  0  0  0  0  0  0  0  0  0
   -6.8940   -3.5070  -15.5360 C   0  0  1  0  0  0  0  0  0  0  0  0
   -2.9230   -2.5900  -17.9660 C   0  0  1  0  0  0  0  0  0  0  0  0
   -4.7770   -3.3630  -15.6680 N   0  0  0  0  0  0  0  0  0  0  0  0
   -2.5650   -2.7070  -16.7700 O   0  0  0  0  0  0  0  0  0  0  0  0
   -5.1420   -2.6210  -16.6570 C   0  0  0  0  0  0  0  0  0  0  0  0
   -4.3330   -1.8900  -17.6720 C   0  0  2  0  0  0  0  0  0  0  0  0
   -6.6060   -2.6470  -16.6520 C   0  0  0  0  0  0  0  0  0  0  0  0
   -0.6160   -2.0490  -17.9010 C   0  0  1  0  0  0  0  0  0  0  0  0
    0.6850   -0.3530  -19.1310 C   0  0  0  0  0  0  0  0  0  0  0  0
   -8.8350   -1.6640  -17.5770 C   0  0  0  0  0  0  0  0  0  0  0  0
   -6.5610   -1.2870  -18.5710 N   0  0  0  0  0  0  0  0  0  0  0  0
  1 16  1  0
 17  4  1  6
  5 20  1  0
  6  8  1  6
  7  3  2  0
 10  2  1  6
 10  9  1  0
 11  4  1  6
 11 15  1  0
 11 13  1  0
 12  9  2  0
 13  7  1  0
 14 16  2  0
 14 12  1  0
 15  5  1  6
 15 14  1  0
 16 10  1  0
 17  6  1  0
 17  7  1  0
 18  6  1  0
 19  1  1  0
 20  1  2  0
M  END
$$$$

     RDKit          3D

 19 21  0  0  0  0  0  0  0  0999 V2000
   -9.5570   -1.4710  -16.2190 O   0  0  0  0  0  0  0  0  0  0  0  0
   -7.9590   -2.0170  -17.8360 C   0  0  1  0  0  0  0  0  0  0  0  0
   -3.2250   -1.5790  -18.0660 C   0  0  0  0  0  0  0  0  0  0  0  0
   -3.7120   -2.9540  -15.5310 C   0  0  0  0  0  0  0  0  0  0  0  0
   -4.5280   -2.0880  -17.7940 C   0  0  1  0  0  0  0  0  0  0  0  0
   -1.6310   -0.5390  -19.6330 C   0  0  0  0  0  0  0  0  0  0  0  0
   -8.1450   -3.2420  -18.5610 O   0  0  0  0  0  0  0  0  0  0  0  0
   -4.8950   -2.6840  -16.4020 C   0  0  0  0  0  0  0  0  0  0  0  0
   -2.9920   -0.9230  -19.2980 C   0  0  0  0  0  0  0  0  0  0  0  0
   -6.8270   -1.4550  -18.0790 O   0  0  0  0  0  0  0  0  0  0  0  0
   -2.2360   -1.7130  -17.1440 C   0  0  0  0  0  0  0  0  0  0  0  0
   -9.6510   -0.6030  -17.1830 C   0  0  0  0  0  0  0  0  0  0  0  0
   -2.4300   -2.1070  -15.7240 C   0  0  0  0  0  0  0  0  0  0  0  0
   -8.6690   -0.8490  -18.1440 O   0  0  0  0  0  0  0  0  0  0  0  0
   -0.6080   -0.7290  -18.5840 C   0  0  0  0  0  0  0  0  0  0  0  0
   -8.4040   -2.2560  -16.4520 C   0  0  0  0  0  0  0  0  0  0  0  0
   -5.7260   -1.9750  -18.7350 C   0  0  0  0  0  0  0  0  0  0  0  0
   -0.8730   -1.4920  -17.5730 C   0  0  0  0  0  0  0  0  0  0  0  0
  -10.4040    0.3930  -17.1600 O   0  0  0  0  0  0  0  0  0  0  0  0
  2  7  1  6
  2 16  1  0
  3  5  1  0
  3 11  2  0
  5 17  1  1
  5  8  1  0
  6  9  2  0
  6 15  1  0
  8  4  1  0
  9  3  1  0
 10  2  1  0
 11 13  1  0
 12 19  2  0
 12  1  1  0
 13  4  1  0
 14  2  1  0
 14 12  1  0
 15 18  2  0
 16  1  1  0
 17 10  1  0
 18 11  1  0
M  END
$$$$

     RDKit          3D

 19 19  0  0  0  0  0  0  0  0999 V2000
   -1.9800   -1.8120  -16.0310 C   0  0  0  0  0  0  0  0  0  0  0  0
   -0.6350   -1.8050  -15.7670 O   0  0  0  0  0  0  0  0  0  0  0  0
   -5.1880   -2.7040  -16.7140 C   0  0  0  0  0  0  0  0  0  0  0  0
   -6.4610   -2.3930  -16.8270 O   0  0  0  0  0  0  0  0  0  0  0  0
   -1.2970   -1.2280  -18.1830 C   0  0  2  0  0  0  0  0  0  0  0  0
   -3.2220   -1.1240  -19.5230 C   0  0  0  0  0  0  0  0  0  0  0  0
   -2.3650   -2.1330  -17.4000 C   0  0  2  0  0  0  0  0  0  0  0  0
   -7.5510   -2.9710  -16.1250 C   0  0  0  0  0  0  0  0  0  0  0  0
   -7.4500   -3.2030  -14.7470 O   0  0  0  0  0  0  0  0  0  0  0  0
   -0.7800    0.0310  -17.9960 C   0  0  0  0  0  0  0  0  0  0  0  0
   -3.6570   -1.2730  -18.0380 C   0  0  2  0  0  0  0  0  0  0  0  0
   -4.7580   -2.2980  -17.9060 N   0  0  0  0  0  0  0  0  0  0  0  0
   -9.4310   -1.8930  -16.4660 F   0  0  0  0  0  0  0  0  0  0  0  0
   -9.3470   -4.0990  -16.5820 F   0  0  0  0  0  0  0  0  0  0  0  0
   -1.9030   -1.1550  -19.7580 C   0  0  0  0  0  0  0  0  0  0  0  0
   -8.6460   -3.0300  -16.7950 C   0  0  2  0  0  0  0  0  0  0  0  0
   -2.2670   -3.6190  -18.0190 C   0  0  0  0  0  0  0  0  0  0  0  0
   -4.6790   -3.2110  -15.6790 O   0  0  0  0  0  0  0  0  0  0  0  0
   -8.2670   -3.0830  -17.9490 F   0  0  0  0  0  0  0  0  0  0  0  0
  1  2  1  0
  3 18  2  0
  4  3  1  0
  4  8  1  0
  5 10  1  1
  5  7  1  0
  6 11  1  0
  7 17  1  6
  7  1  1  0
  8  9  2  0
 11 12  1  6
 11  7  1  0
 12  3  1  0
 15  6  1  0
 15  5  1  0
 16 14  1  1
 16 13  1  0
 16  8  1  0
 19 16  1  0
M  END
$$$$

     RDKit          3D

 22 25  0  0  0  0  0  0  0  0999 V2000
   -8.4870   -1.8550  -18.2160 N   0  0  0  0  0  0  0  0  0  0  0  0
   -1.0540    0.6850  -16.8080 C   0  0  0  0  0  0  0  0  0  0  0  0
   -8.0330   -2.2620  -17.0610 C   0  0  0  0  0  0  0  0  0  0  0  0
   -0.7610   -0.3450  -20.5010 O   0  0  0  0  0  0  0  0  0  0  0  0
   -0.6040   -0.6300  -17.4830 C   0  0  1  0  0  0  0  0  0  0  0  0
   -2.6890   -0.0960  -18.9320 C   0  0  1  0  0  0  0  0  0  0  0  0
   -6.2450   -1.6970  -18.1470 C   0  0  0  0  0  0  0  0  0  0  0  0
   -7.2650   -1.4540  -19.0060 C   0  0  0  0  0  0  0  0  0  0  0  0
   -2.0790   -3.2620  -17.0540 C   0  0  0  0  0  0  0  0  0  0  0  0
   -0.5980   -3.0860  -16.5390 N   0  0  0  0  0  0  0  0  0  0  0  0
    0.0330   -1.9740  -16.9500 C   0  0  0  0  0  0  0  0  0  0  0  0
   -8.1250   -3.0180  -16.0750 N   0  0  0  0  0  0  0  0  0  0  0  0
   -4.2740   -0.5630  -19.6260 S   0  0  0  0  0  0  0  0  0  0  0  0
   -1.9040   -1.0910  -18.2550 C   0  0  2  0  0  0  0  0  0  0  0  0
   -2.6310   -2.2440  -17.7530 C   0  0  2  0  0  0  0  0  0  0  0  0
   -1.9380    0.4190  -20.3000 C   0  0  0  0  0  0  0  0  0  0  0  0
   -6.7710   -2.9970  -16.0070 C   0  0  0  0  0  0  0  0  0  0  0  0
    0.9520   -0.0020  -18.0220 C   0  0  0  0  0  0  0  0  0  0  0  0
   -4.8370   -1.5420  -18.3150 C   0  0  0  0  0  0  0  0  0  0  0  0
   -3.9540   -2.1750  -17.5050 N   0  0  0  0  0  0  0  0  0  0  0  0
   -5.9570   -3.4560  -15.3170 O   0  0  0  0  0  0  0  0  0  0  0  0
   -6.7390   -2.1020  -16.9630 N   0  0  0  0  0  0  0  0  0  0  0  0
  1  3  2  0
  3 22  1  0
  3 12  1  0
  4 16  1  0
  5 11  1  0
  5  2  1  1
  6 16  1  6
 14  6  1  1
  7 22  1  0
  8  1  1  0
  8  7  2  0
  9 10  2  0
 11 10  1  0
 12 17  1  0
 13  6  1  0
 13 19  1  0
 14 15  1  0
 14  5  1  0
 15 20  1  0
 15  9  1  1
 17 21  2  0
 18  5  1  0
 19  7  1  0
 19 20  2  0
 22 17  1  0
M  END
$$$$

     RDKit          3D

 23 25  0  0  0  0  0  0  0  0999 V2000
   -3.2550   -1.4260  -17.4710 C   0  0  1  0  0  0  0  0  0  0  0  0
   -7.4130   -3.5560  -14.7470 O   0  0  0  0  0  0  0  0  0  0  0  0
   -8.9810   -4.1820  -16.1440 O   0  0  0  0  0  0  0  0  0  0  0  0
   -4.8370   -0.3160  -20.4540 O   0  0  0  0  0  0  0  0  0  0  0  0
   -8.0620   -3.4460  -15.9650 C   0  0  0  0  0  0  0  0  0  0  0  0
   -5.3850   -1.7840  -17.9820 C   0  0  0  0  0  0  0  0  0  0  0  0
   -4.1700   -1.4650  -18.4430 C   0  0  1  0  0  0  0  0  0  0  0  0
   -6.6390   -1.6570  -18.9780 C   0  0  0  0  0  0  0  0  0  0  0  0
   -2.3130   -2.9960  -15.3800 C   0  0  0  0  0  0  0  0  0  0  0  0
   -1.3980   -1.9850  -16.1020 C   0  0  0  0  0  0  0  0  0  0  0  0
   -3.8870   -1.9380  -16.4140 O   0  0  0  0  0  0  0  0  0  0  0  0
   -3.6340   -3.0990  -15.9640 C   0  0  0  0  0  0  0  0  0  0  0  0
   -2.4390   -0.4680  -20.0970 C   0  0  0  0  0  0  0  0  0  0  0  0
   -7.6220   -2.2270  -18.2520 C   0  0  0  0  0  0  0  0  0  0  0  0
   -0.9640   -1.1340  -18.4320 C   0  0  0  0  0  0  0  0  0  0  0  0
   -0.2610   -0.1560  -17.9360 O   0  0  0  0  0  0  0  0  0  0  0  0
    0.0880   -0.8870  -20.5220 C   0  0  0  0  0  0  0  0  0  0  0  0
   -3.9810   -0.6060  -19.6400 C   0  0  0  0  0  0  0  0  0  0  0  0
   -2.3670    0.1650  -21.3510 O   0  0  0  0  0  0  0  0  0  0  0  0
   -6.1640   -2.2740  -16.7990 O   0  0  0  0  0  0  0  0  0  0  0  0
   -1.8640   -1.9690  -17.6340 C   0  0  2  0  0  0  0  0  0  0  0  0
   -1.2090   -1.0010  -19.7970 N   0  0  0  0  0  0  0  0  0  0  0  0
   -7.4630   -2.6620  -16.9730 C   0  0  0  0  0  0  0  0  0  0  0  0
  1 11  1  1
  3  5  2  0
  4 18  2  0
  5  2  1  0
  6 20  1  0
  7  6  1  1
  7  1  1  0
  8 14  1  0
  8  6  2  0
 10  9  1  0
 11 12  1  0
 12  9  1  0
 13 22  1  0
 13 18  1  0
 14 23  2  0
 15 16  2  0
 15 21  1  0
 17 22  1  0
 18  7  1  0
 19 13  2  0
 21  1  1  0
 21 10  1  1
 22 15  1  0
 23 20  1  0
 23  5  1  0
M  END
$$$$

     RDKit          3D

 18 19  0  0  0  0  0  0  0  0999 V2000
   -2.1030   -1.4570  -18.6440 C   0  0  0  0  0  0  0  0  0  0  0  0
   -6.9950   -2.0180  -17.4870 C   0  0  0  0  0  0  0  0  0  0  0  0
   -2.6480   -1.5750  -16.4390 C   0  0  0  0  0  0  0  0  0  0  0  0
   -4.0380   -0.5160  -20.5360 C   0  0  0  0  0  0  0  0  0  0  0  0
   -7.5040   -2.7430  -16.4200 C   0  0  0  0  0  0  0  0  0  0  0  0
   -3.2590   -1.4480  -18.2980 C   0  0  0  0  0  0  0  0  0  0  0  0
   -1.1050   -2.3490  -16.9810 O   0  0  0  0  0  0  0  0  0  0  0  0
   -1.1020   -2.2800  -18.0240 C   0  0  0  0  0  0  0  0  0  0  0  0
   -5.1130   -1.0020  -19.6870 N   0  0  0  0  0  0  0  0  0  0  0  0
   -7.6290   -1.3970  -18.4140 O   0  0  0  0  0  0  0  0  0  0  0  0
   -5.0350   -3.1500  -15.8160 C   0  0  0  0  0  0  0  0  0  0  0  0
   -0.0890   -2.3830  -18.3750 O   0  0  0  0  0  0  0  0  0  0  0  0
   -6.6680   -3.2750  -15.3480 C   0  0  0  0  0  0  0  0  0  0  0  0
   -3.4750   -1.6540  -16.7250 C   0  0  0  0  0  0  0  0  0  0  0  0
   -4.7610   -2.5660  -16.5800 C   0  0  0  0  0  0  0  0  0  0  0  0
   -5.0010   -1.3480  -18.5730 C   0  0  0  0  0  0  0  0  0  0  0  0
   -8.8690   -2.9120  -16.5730 O   0  0  0  0  0  0  0  0  0  0  0  0
   -5.5450   -1.8480  -17.5110 C   0  0  0  0  0  0  0  0  0  0  0  0
  1  6  1  0
  1  8  1  0
  2  5  1  0
  4  9  1  0
  5 17  1  0
  5 13  1  0
  6 14  1  0
  8  7  1  0
  9 16  1  0
 10  2  1  0
 11 13  2  0
 12  8  2  0
 14 15  2  0
 14  3  1  0
 15 11  1  0
 16  6  2  0
 16 18  1  0
 18  2  2  0
 18 15  1  0
M  END
$$$$

     RDKit          3D

 20 23  0  0  0  0  0  0  0  0999 V2000
   -7.5140   -3.7420  -15.0150 C   0  0  0  0  0  0  0  0  0  0  0  0
   -4.4730   -0.8230  -19.0060 C   0  0  0  0  0  0  0  0  0  0  0  0
   -3.9610   -1.6390  -16.8190 C   0  0  0  0  0  0  0  0  0  0  0  0
   -5.3480   -0.5810  -20.0170 O   0  0  0  0  0  0  0  0  0  0  0  0
   -8.6300   -3.3160  -15.8350 C   0  0  0  0  0  0  0  0  0  0  0  0
   -7.1610   -1.9160  -18.6710 C   0  0  0  0  0  0  0  0  0  0  0  0
   -4.8600   -1.4520  -17.8410 C   0  0  0  0  0  0  0  0  0  0  0  0
   -0.3540   -0.0790  -19.7560 C   0  0  0  0  0  0  0  0  0  0  0  0
   -3.1120   -0.4090  -19.2000 C   0  0  0  0  0  0  0  0  0  0  0  0
   -2.6480   -1.1590  -17.0270 C   0  0  0  0  0  0  0  0  0  0  0  0
   -0.8370   -0.1970  -18.2360 C   0  0  0  0  0  0  0  0  0  0  0  0
   -8.3580   -2.1300  -18.0950 N   0  0  0  0  0  0  0  0  0  0  0  0
   -6.1460   -1.9500  -17.7780 N   0  0  0  0  0  0  0  0  0  0  0  0
   -2.8520    0.2990  -20.4290 C   0  0  0  0  0  0  0  0  0  0  0  0
   -6.3440   -3.3290  -15.5760 N   0  0  0  0  0  0  0  0  0  0  0  0
   -6.6500   -2.5920  -16.6980 C   0  0  0  0  0  0  0  0  0  0  0  0
   -1.3610    0.5570  -20.6690 C   0  0  0  0  0  0  0  0  0  0  0  0
   -2.2350   -0.7440  -18.2630 C   0  0  0  0  0  0  0  0  0  0  0  0
   -7.1880   -1.8560  -19.9210 O   0  0  0  0  0  0  0  0  0  0  0  0
   -8.0260   -2.6190  -16.8570 C   0  0  0  0  0  0  0  0  0  0  0  0
  2  7  2  0
  4  2  1  0
  5  1  2  0
  6 12  1  0
  6 13  1  0
  7 13  1  0
  7  3  1  0
  8 11  1  0
  9  2  1  0
  9 18  2  0
 10  3  2  0
 12 20  2  0
 13 16  1  0
 14  9  1  0
 15  1  1  0
 16 15  2  0
 17 14  1  0
 17  8  1  0
 18 11  1  0
 18 10  1  0
 19  6  2  0
 20 16  1  0
 20  5  1  0
M  END
$$$$

     RDKit          3D

 20 21  0  0  0  0  0  0  0  0999 V2000
   -8.5010   -3.7280  -17.5790 C   0  0  0  0  0  0  0  0  0  0  0  0
   -8.9220   -1.5020  -16.7380 C   0  0  0  0  0  0  0  0  0  0  0  0
   -8.0930   -3.4130  -15.1840 N   0  0  0  0  0  0  0  0  0  0  0  0
   -4.4440   -3.2440  -15.7520 C   0  0  0  0  0  0  0  0  0  0  0  0
   -0.5900   -0.2520  -16.9690 O   0  0  0  0  0  0  0  0  0  0  0  0
   -2.8380   -0.9890  -18.2050 C   0  0  0  0  0  0  0  0  0  0  0  0
   -6.2460   -1.3980  -17.3340 O   0  0  0  0  0  0  0  0  0  0  0  0
   -5.0670   -1.4220  -17.9950 C   0  0  2  0  0  0  0  0  0  0  0  0
   -0.2470    0.5790  -18.1490 C   0  0  0  0  0  0  0  0  0  0  0  0
   -6.5520   -2.4560  -16.7730 C   0  0  0  0  0  0  0  0  0  0  0  0
   -1.8420   -0.9130  -17.1420 C   0  0  0  0  0  0  0  0  0  0  0  0
   -3.8490   -1.7630  -17.5080 C   0  0  0  0  0  0  0  0  0  0  0  0
   -4.9450   -0.9190  -19.5040 S   0  0  0  0  0  0  0  0  0  0  0  0
   -3.4440   -2.5090  -16.4400 C   0  0  0  0  0  0  0  0  0  0  0  0
   -7.9090   -3.6930  -18.7170 O   0  0  0  0  0  0  0  0  0  0  0  0
   -3.3900   -0.5030  -19.4370 C   0  0  0  0  0  0  0  0  0  0  0  0
   -2.0720   -2.1500  -16.4720 N   0  0  0  0  0  0  0  0  0  0  0  0
   -8.0630   -2.7370  -16.5190 C   0  0  1  0  0  0  0  0  0  0  0  0
   -9.5250   -4.4010  -17.5000 O   0  0  0  0  0  0  0  0  0  0  0  0
   -1.0550   -2.8640  -16.5860 C   0  0  0  0  0  0  0  0  0  0  0  0
  1 19  1  0
  1 18  1  0
  6 12  1  0
  6 11  2  0
  7 10  1  0
  8 12  1  0
  8  7  1  1
  9  5  1  0
 10 18  1  0
 11  5  1  0
 11 17  1  0
 12 14  2  0
 13 16  1  0
 13  8  1  0
 14  4  1  0
 15  1  2  0
 16  6  1  0
 17 14  1  0
 18  2  1  1
 18  3  1  0
 20 17  1  0
M  END
$$$$

     RDKit          3D

 21 21  0  0  0  0  0  0  0  0999 V2000
   -1.1370   -2.0640  -17.9580 O   0  0  0  0  0  0  0  0  0  0  0  0
   -3.2660   -0.9080  -20.2310 O   0  0  0  0  0  0  0  0  0  0  0  0
   -7.1130   -2.3150  -16.9040 C   0  0  2  0  0  0  0  0  0  0  0  0
   -5.6890   -1.2590  -18.8500 C   0  0  0  0  0  0  0  0  0  0  0  0
   -8.4330   -2.9090  -16.6740 C   0  0  0  0  0  0  0  0  0  0  0  0
   -6.8370   -1.6770  -18.0150 C   0  0  0  0  0  0  0  0  0  0  0  0
   -3.3820   -0.8300  -19.1060 C   0  0  0  0  0  0  0  0  0  0  0  0
   -7.9720   -1.1360  -18.5960 O   0  0  0  0  0  0  0  0  0  0  0  0
   -9.3900   -2.3760  -17.2440 O   0  0  0  0  0  0  0  0  0  0  0  0
   -4.5340   -1.3740  -18.3580 C   0  0  0  0  0  0  0  0  0  0  0  0
   -5.1760   -2.4610  -16.5180 C   0  0  0  0  0  0  0  0  0  0  0  0
   -0.9190   -1.0420  -18.9190 C   0  0  2  0  0  0  0  0  0  0  0  0
   -0.7040   -1.3920  -20.3300 C   0  0  0  0  0  0  0  0  0  0  0  0
    0.0320   -1.5550  -16.0160 O   0  0  0  0  0  0  0  0  0  0  0  0
   -4.2640   -1.9960  -17.1250 C   0  0  0  0  0  0  0  0  0  0  0  0
   -0.1060   -0.0600  -18.3810 C   0  0  0  0  0  0  0  0  0  0  0  0
   -8.5570   -3.9520  -15.8970 O   0  0  0  0  0  0  0  0  0  0  0  0
   -2.3020   -0.3280  -19.0600 C   0  0  0  0  0  0  0  0  0  0  0  0
    0.5130   -3.2930  -17.1770 O   0  0  0  0  0  0  0  0  0  0  0  0
   -6.2360   -2.9190  -15.8830 N   0  0  0  0  0  0  0  0  0  0  0  0
   -0.1380   -2.2590  -16.9810 C   0  0  0  0  0  0  0  0  0  0  0  0
  1 21  1  0
  2  7  2  0
  3  5  1  6
  3 20  1  0
  4 10  1  0
  4  6  2  0
  5 17  1  0
  6  3  1  0
  7 18  1  0
  7 10  1  0
  8  6  1  0
  9  5  2  0
 10 15  2  0
 11 20  1  0
 12 16  1  1
 12  1  1  0
 13 12  1  0
 15 11  1  0
 18 12  1  0
 19 21  2  0
 21 14  1  0
M  END
$$$$

     RDKit          3D

 21 22  0  0  0  0  0  0  0  0999 V2000
   -5.2850   -3.4660  -15.4020 F   0  0  0  0  0  0  0  0  0  0  0  0
   -8.0680   -4.4400  -15.1770 O   0  0  0  0  0  0  0  0  0  0  0  0
   -0.5770   -1.8830  -17.5870 C   0  0  0  0  0  0  0  0  0  0  0  0
   -3.3650   -0.4830  -20.7390 C   0  0  0  0  0  0  0  0  0  0  0  0
   -1.0530   -0.4970  -19.6710 C   0  0  0  0  0  0  0  0  0  0  0  0
   -9.4420   -2.1490  -17.2260 C   0  0  0  0  0  0  0  0  0  0  0  0
   -6.3190   -2.9800  -16.1410 C   0  0  0  0  0  0  0  0  0  0  0  0
   -9.7020   -0.9680  -17.0940 O   0  0  0  0  0  0  0  0  0  0  0  0
   -4.8720   -1.1780  -17.1670 C   0  0  0  0  0  0  0  0  0  0  0  0
   -9.9950   -3.1280  -17.7360 N   0  0  0  0  0  0  0  0  0  0  0  0
   -0.1650   -1.6240  -19.0130 C   0  0  1  0  0  0  0  0  0  0  0  0
   -8.2030   -2.4570  -16.9210 C   0  0  0  0  0  0  0  0  0  0  0  0
   -2.8730   -1.2700  -18.4520 C   0  0  1  0  0  0  0  0  0  0  0  0
   -7.6800   -3.3430  -16.0800 C   0  0  0  0  0  0  0  0  0  0  0  0
   -2.3870   -1.1530  -19.8070 N   0  0  0  0  0  0  0  0  0  0  0  0
    1.2040   -1.2940  -19.3370 O   0  0  0  0  0  0  0  0  0  0  0  0
   -4.2620   -1.7950  -18.4310 C   0  0  0  0  0  0  0  0  0  0  0  0
   -2.0570   -2.3610  -17.7040 C   0  0  2  0  0  0  0  0  0  0  0  0
   -7.3990   -1.6410  -17.5190 N   0  0  0  0  0  0  0  0  0  0  0  0
   -6.1430   -1.8150  -17.0480 C   0  0  0  0  0  0  0  0  0  0  0  0
   -2.7320   -2.8220  -16.4920 O   0  0  0  0  0  0  0  0  0  0  0  0
  4 15  1  0
  5 11  1  0
  6  8  2  0
  6 12  1  0
  7 14  1  0
  7  1  1  0
  9 20  1  0
 10  6  1  0
 11 16  1  1
 11  3  1  0
 12 14  1  0
 13 17  1  6
 13 18  1  0
 14  2  1  0
 15  5  1  0
 15 13  1  0
 17  9  1  0
 18  3  1  0
 18 21  1  1
 19 20  1  0
 19 12  2  0
 20  7  2  0
M  END
$$$$

     RDKit          3D

 21 23  0  0  0  0  0  0  0  0999 V2000
   -3.6910   -1.9050  -16.8650 C   0  0  1  0  0  0  0  0  0  0  0  0
   -8.3450   -4.6510  -15.0250 O   0  0  0  0  0  0  0  0  0  0  0  0
   -6.8660   -3.2090  -16.0540 C   0  0  0  0  0  0  0  0  0  0  0  0
   -2.3300    0.2790  -17.8590 C   0  0  0  0  0  0  0  0  0  0  0  0
   -2.8170    0.1230  -19.3060 C   0  0  0  0  0  0  0  0  0  0  0  0
   -8.1460   -1.4910  -17.1030 C   0  0  0  0  0  0  0  0  0  0  0  0
   -8.0320   -3.8100  -16.0370 N   0  0  0  0  0  0  0  0  0  0  0  0
   -2.6210   -4.1420  -17.3490 C   0  0  0  0  0  0  0  0  0  0  0  0
   -8.9770   -3.5550  -17.1430 C   0  0  0  0  0  0  0  0  0  0  0  0
   -3.8300   -3.5450  -17.5090 C   0  0  0  0  0  0  0  0  0  0  0  0
   -3.9610   -1.0270  -19.1520 C   0  0  0  0  0  0  0  0  0  0  0  0
   -4.5490   -1.4360  -18.1450 C   0  0  1  0  0  0  0  0  0  0  0  0
   -1.6690   -2.7440  -15.3400 C   0  0  0  0  0  0  0  0  0  0  0  0
   -6.6850   -1.9900  -16.8790 C   0  0  2  0  0  0  0  0  0  0  0  0
   -1.5900   -3.2970  -16.8200 C   0  0  0  0  0  0  0  0  0  0  0  0
   -6.8060   -1.7900  -19.1240 C   0  0  0  0  0  0  0  0  0  0  0  0
   -8.4560   -2.5200  -18.2200 C   0  0  0  0  0  0  0  0  0  0  0  0
   -3.0730   -2.1740  -15.5120 C   0  0  0  0  0  0  0  0  0  0  0  0
   -3.2680   -0.3380  -16.8460 C   0  0  0  0  0  0  0  0  0  0  0  0
   -5.9430   -3.6030  -15.3300 O   0  0  0  0  0  0  0  0  0  0  0  0
   -5.8970   -1.8630  -18.0630 C   0  0  1  0  0  0  0  0  0  0  0  0
  1 19  1  6
  1 18  1  0
  3  7  1  0
  3 20  2  0
  4 19  1  0
  5 11  1  0
  5  4  1  0
 14  6  1  6
  7  2  1  0
  8 15  1  0
  9  7  1  0
 10  8  1  0
 10  1  1  0
 12 11  1  6
 12 21  1  0
 12  1  1  0
 14 21  1  0
 14  3  1  0
 15 13  1  0
 17  9  1  0
 17  6  1  0
 18 13  1  0
 21 16  1  6
M  END
$$$$

     RDKit          3D

 22 25  0  0  0  0  0  0  0  0999 V2000
   -1.8790   -0.9740  -16.3360 C   0  0  0  0  0  0  0  0  0  0  0  0
   -5.2100   -0.9940  -19.9460 O   0  0  0  0  0  0  0  0  0  0  0  0
   -7.9790   -2.7720  -17.6480 C   0  0  2  0  0  0  0  0  0  0  0  0
   -6.6860   -2.1200  -18.4800 C   0  0  0  0  0  0  0  0  0  0  0  0
   -3.5550   -0.5500  -18.5060 C   0  0  0  0  0  0  0  0  0  0  0  0
   -0.8120   -1.9790  -15.6240 C   0  0  1  0  0  0  0  0  0  0  0  0
   -7.0980   -3.1960  -16.3090 C   0  0  1  0  0  0  0  0  0  0  0  0
   -7.4210   -1.8640  -19.7000 O   0  0  0  0  0  0  0  0  0  0  0  0
   -3.0070   -3.1150  -15.3190 C   0  0  0  0  0  0  0  0  0  0  0  0
   -8.9680   -4.0980  -15.4850 C   0  0  0  0  0  0  0  0  0  0  0  0
   -1.8240   -2.9790  -14.8320 C   0  0  0  0  0  0  0  0  0  0  0  0
   -4.2630   -1.7730  -16.9780 C   0  0  0  0  0  0  0  0  0  0  0  0
   -5.1670   -2.1470  -16.5440 N   0  0  0  0  0  0  0  0  0  0  0  0
   -5.7650   -2.5850  -16.2800 C   0  0  0  0  0  0  0  0  0  0  0  0
   -3.1590   -1.9100  -16.2470 C   0  0  2  0  0  0  0  0  0  0  0  0
   -9.5340   -4.0330  -16.7400 C   0  0  0  0  0  0  0  0  0  0  0  0
   -3.7870   -0.5060  -19.9750 C   0  0  0  0  0  0  0  0  0  0  0  0
   -5.5360   -1.6040  -18.6710 C   0  0  0  0  0  0  0  0  0  0  0  0
    0.5150   -2.2530  -16.2640 C   0  0  0  0  0  0  0  0  0  0  0  0
   -4.5170   -1.3100  -17.9610 C   0  0  2  0  0  0  0  0  0  0  0  0
   -7.8010   -3.5630  -15.5180 C   0  0  0  0  0  0  0  0  0  0  0  0
   -9.0560   -3.2700  -17.7430 C   0  0  0  0  0  0  0  0  0  0  0  0
  1  6  1  0
  2 18  1  0
  3 22  1  6
  3  7  1  0
  4  3  1  0
  6 19  1  6
  6 11  1  0
  7 14  1  1
  7 21  1  0
  8  4  1  0
  9 11  1  0
 12 13  1  0
 15 12  1  6
 13 14  1  0
 15  1  1  0
 15  9  1  0
 16 10  1  0
 17  2  1  0
 17  5  1  0
 18  4  2  3
 18 20  1  0
 20  5  1  6
 20 12  1  0
 21 10  1  0
 22 16  2  0
M  END
$$$$

     RDKit          3D

 19 21  0  0  0  0  0  0  0  0999 V2000
   -7.4430   -3.0110  -15.5250 F   0  0  0  0  0  0  0  0  0  0  0  0
   -8.1920   -1.1040  -18.1080 F   0  0  0  0  0  0  0  0  0  0  0  0
   -4.1650   -1.0830  -18.9460 C   0  0  0  0  0  0  0  0  0  0  0  0
   -5.4300   -2.4500  -16.7850 N   0  0  0  0  0  0  0  0  0  0  0  0
   -3.4960   -0.3140  -19.9930 C   0  0  0  0  0  0  0  0  0  0  0  0
   -7.6950   -2.2660  -17.8950 C   0  0  1  0  0  0  0  0  0  0  0  0
   -2.1630    0.0740  -19.6060 C   0  0  0  0  0  0  0  0  0  0  0  0
   -9.0750   -4.0250  -16.8240 F   0  0  0  0  0  0  0  0  0  0  0  0
   -2.1450   -1.6660  -17.8020 C   0  0  1  0  0  0  0  0  0  0  0  0
   -3.5360   -1.5710  -17.9350 C   0  0  0  0  0  0  0  0  0  0  0  0
   -1.5370   -0.4160  -18.3990 C   0  0  0  0  0  0  0  0  0  0  0  0
   -8.3160   -2.8090  -16.6880 C   0  0  1  0  0  0  0  0  0  0  0  0
   -3.1720   -2.4580  -15.8120 C   0  0  0  0  0  0  0  0  0  0  0  0
   -8.0010   -3.0750  -18.9260 F   0  0  0  0  0  0  0  0  0  0  0  0
   -4.2280   -2.1170  -16.8600 C   0  0  0  0  0  0  0  0  0  0  0  0
   -6.2470   -2.1080  -17.8100 C   0  0  0  0  0  0  0  0  0  0  0  0
   -5.5580   -1.3280  -18.9630 C   0  0  0  0  0  0  0  0  0  0  0  0
   -1.9740   -1.8300  -16.3720 N   0  0  0  0  0  0  0  0  0  0  0  0
   -9.2770   -1.8610  -16.2430 F   0  0  0  0  0  0  0  0  0  0  0  0
  6  2  1  6
  3 10  2  0
  5  7  1  0
  5  3  1  0
  6 16  1  0
  6 12  1  0
  7 11  1  0
 12  8  1  6
  9 11  1  1
  9 18  1  0
 10  9  1  0
 10 15  1  0
 12 19  1  0
 12  1  1  0
 14  6  1  0
 15  4  2  0
 15 13  1  0
 16  4  1  0
 17  3  1  0
 17 16  2  0
 18 13  1  0
M  END
$$$$

     RDKit          3D

 21 22  0  0  0  0  0  0  0  0999 V2000
   -2.4980   -2.5650  -16.7440 C   0  0  0  0  0  0  0  0  0  0  0  0
   -0.2070   -0.5540  -20.9790 C   0  0  0  0  0  0  0  0  0  0  0  0
   -8.9400   -2.6440  -17.2070 C   0  0  2  0  0  0  0  0  0  0  0  0
   -1.4080   -3.0760  -16.2090 N   0  0  0  0  0  0  0  0  0  0  0  0
   -6.5050   -3.6630  -15.1650 O   0  0  0  0  0  0  0  0  0  0  0  0
   -6.9820   -1.5070  -17.8650 C   0  0  0  0  0  0  0  0  0  0  0  0
  -11.1000   -1.9080  -17.5920 C   0  0  0  0  0  0  0  0  0  0  0  0
   -6.2160   -2.2430  -16.9840 C   0  0  0  0  0  0  0  0  0  0  0  0
   -0.5000    0.3390  -19.8480 C   0  0  0  0  0  0  0  0  0  0  0  0
   -1.7550   -0.2880  -19.2710 O   0  0  0  0  0  0  0  0  0  0  0  0
   -1.0680    0.1930  -17.1660 O   0  0  0  0  0  0  0  0  0  0  0  0
   -3.9580   -3.3910  -16.3590 S   0  0  0  0  0  0  0  0  0  0  0  0
   -8.2770   -1.7130  -17.9480 C   0  0  0  0  0  0  0  0  0  0  0  0
   -1.7750   -0.4560  -18.0160 C   0  0  0  0  0  0  0  0  0  0  0  0
   -8.2780   -3.1140  -16.1490 N   0  0  0  0  0  0  0  0  0  0  0  0
  -10.2130   -3.1510  -17.6040 C   0  0  0  0  0  0  0  0  0  0  0  0
   -4.6160   -0.2320  -18.4440 F   0  0  0  0  0  0  0  0  0  0  0  0
   -2.7370   -1.4450  -17.4740 C   0  0  0  0  0  0  0  0  0  0  0  0
   -4.1030   -1.2670  -17.6570 C   0  0  0  0  0  0  0  0  0  0  0  0
   -4.8010   -2.2090  -17.0260 C   0  0  0  0  0  0  0  0  0  0  0  0
   -6.9700   -3.0580  -16.0510 C   0  0  0  0  0  0  0  0  0  0  0  0
  1 12  1  0
  1  4  1  0
  2  9  1  0
  3 16  1  6
  3 15  1  0
  6  8  1  0
  8 20  1  0
  8 21  1  0
  9 10  1  0
 10 14  1  0
 13  6  2  0
 13  3  1  0
 14 18  1  0
 14 11  2  0
 15 21  1  0
 16  7  1  0
 17 19  1  0
 18  1  2  0
 19 18  1  0
 19 20  2  0
 20 12  1  0
 21  5  2  0
M  END
$$$$

     RDKit          3D

 17 20  0  0  0  0  0  0  0  0999 V2000
   -3.4000   -3.0360  -15.3450 C   0  0  1  0  0  0  0  0  0  0  0  0
   -9.5660   -1.8250  -17.1330 C   0  0  0  0  0  0  0  0  0  0  0  0
   -2.5380   -2.1790  -14.4630 C   0  0  0  0  0  0  0  0  0  0  0  0
   -1.7410   -1.6320  -17.5060 C   0  0  0  0  0  0  0  0  0  0  0  0
   -6.4000   -2.6500  -16.7210 N   0  0  0  0  0  0  0  0  0  0  0  0
   -3.9360   -2.3660  -16.6500 C   0  0  0  0  0  0  0  0  0  0  0  0
   -7.3130   -2.2580  -17.7080 C   0  0  0  0  0  0  0  0  0  0  0  0
   -4.0480   -1.1410  -18.5590 C   0  0  0  0  0  0  0  0  0  0  0  0
   -5.2670   -2.2170  -17.1310 C   0  0  0  0  0  0  0  0  0  0  0  0
   -3.1700   -1.6650  -17.5810 C   0  0  0  0  0  0  0  0  0  0  0  0
   -8.6110   -2.9050  -17.5340 C   0  0  1  0  0  0  0  0  0  0  0  0
   -5.3150   -1.5120  -18.1840 C   0  0  0  0  0  0  0  0  0  0  0  0
   -1.8380   -3.2090  -15.4690 C   0  0  2  0  0  0  0  0  0  0  0  0
   -9.3780   -0.5130  -17.1470 N   0  0  0  0  0  0  0  0  0  0  0  0
   -8.7570   -3.8390  -16.4800 O   0  0  0  0  0  0  0  0  0  0  0  0
   -1.1150   -2.9420  -16.7280 N   0  0  0  0  0  0  0  0  0  0  0  0
   -6.6530   -1.5390  -18.5710 N   0  0  0  0  0  0  0  0  0  0  0  0
  1  3  1  1
  4 16  1  0
  6  1  1  0
  7 11  1  0
  7  5  2  0
  8 12  2  0
  8 10  1  0
  9 12  1  0
  9  5  1  0
  9  6  1  0
 10  4  1  0
 10  6  2  0
 11  2  1  0
 11 15  1  1
 13  1  1  0
 13  3  1  1
 14  2  2  0
 16 13  1  0
 17 12  1  0
 17  7  1  0
M  END
$$$$

     RDKit          3D

 18 19  0  0  0  0  0  0  0  0999 V2000
   -4.7970   -1.3520  -18.9230 C   0  0  0  0  0  0  0  0  0  0  0  0
   -6.2230   -1.1770  -19.4310 C   0  0  0  0  0  0  0  0  0  0  0  0
   -2.3650   -2.3890  -16.1940 C   0  0  0  0  0  0  0  0  0  0  0  0
   -6.4650   -0.6390  -20.5360 O   0  0  0  0  0  0  0  0  0  0  0  0
   -7.6010   -2.2330  -17.4830 C   0  0  0  0  0  0  0  0  0  0  0  0
   -4.5700   -3.0580  -15.4790 N   0  0  0  0  0  0  0  0  0  0  0  0
   -3.2720   -3.0860  -15.3650 C   0  0  0  0  0  0  0  0  0  0  0  0
   -9.0310   -2.5070  -17.1560 C   0  0  0  0  0  0  0  0  0  0  0  0
   -2.8670   -1.6280  -17.3300 C   0  0  0  0  0  0  0  0  0  0  0  0
   -7.2990   -3.5190  -15.1060 S   0  0  0  0  0  0  0  0  0  0  0  0
   -0.5380   -1.7810  -18.2210 C   0  0  0  0  0  0  0  0  0  0  0  0
   -3.9000   -1.0360  -19.8490 O   0  0  0  0  0  0  0  0  0  0  0  0
   -6.5940   -2.5870  -16.4950 N   0  0  0  0  0  0  0  0  0  0  0  0
   -5.1530   -2.4040  -16.5650 C   0  0  0  0  0  0  0  0  0  0  0  0
   -4.2770   -1.7950  -17.6130 C   0  0  0  0  0  0  0  0  0  0  0  0
   -1.8300   -1.0000  -18.0980 N   0  0  0  0  0  0  0  0  0  0  0  0
   -1.8730    0.2570  -18.6490 O   0  0  0  0  0  0  0  0  0  0  0  0
   -7.2110   -1.7230  -18.6480 N   0  0  0  0  0  0  0  0  0  0  0  0
  1 12  1  0
  1 15  1  0
  2  1  1  0
  2 18  1  0
  3  7  2  0
  4  2  2  0
  5  8  1  0
  5 13  1  0
  6  7  1  0
  9  3  1  0
 11 16  1  0
 13 10  1  0
 14 13  1  0
 14  6  2  0
 15  9  2  0
 15 14  1  0
 16  9  1  0
 17 16  1  0
 18  5  2  0
M  END
$$$$

     RDKit          3D

 21 23  0  0  0  0  0  0  0  0999 V2000
   -2.5140   -3.9060  -16.3100 O   0  0  0  0  0  0  0  0  0  0  0  0
    1.2200   -0.6320  -19.2140 O   0  0  0  0  0  0  0  0  0  0  0  0
   -9.0650   -3.3760  -18.1670 O   0  0  0  0  0  0  0  0  0  0  0  0
    0.3600   -1.8960  -17.1780 C   0  0  0  0  0  0  0  0  0  0  0  0
   -4.9610   -2.2000  -18.1600 C   0  0  2  0  0  0  0  0  0  0  0  0
   -7.2940   -2.4360  -17.3030 C   0  0  1  0  0  0  0  0  0  0  0  0
   -2.2190   -1.7930  -17.3660 C   0  0  0  0  0  0  0  0  0  0  0  0
   -4.1970   -1.0080  -18.5640 C   0  0  0  0  0  0  0  0  0  0  0  0
   -1.7610   -2.2450  -15.0120 O   0  0  0  0  0  0  0  0  0  0  0  0
   -0.8980   -1.5760  -17.9540 C   0  0  1  0  0  0  0  0  0  0  0  0
   -1.0010   -0.1080  -18.3370 C   0  0  2  0  0  0  0  0  0  0  0  0
   -6.5060   -2.2010  -18.5650 C   0  0  0  0  0  0  0  0  0  0  0  0
   -2.7250   -1.1660  -18.0800 C   0  0  0  0  0  0  0  0  0  0  0  0
   -1.0840   -1.2660  -19.4580 C   0  0  1  0  0  0  0  0  0  0  0  0
   -2.1470   -2.8490  -16.2410 C   0  0  0  0  0  0  0  0  0  0  0  0
   -6.3330   -2.2410  -16.3000 C   0  0  0  0  0  0  0  0  0  0  0  0
   -4.9210   -2.3510  -16.6770 C   0  0  0  0  0  0  0  0  0  0  0  0
   -8.5980   -2.6880  -17.3530 C   0  0  0  0  0  0  0  0  0  0  0  0
    0.4830    0.4540  -18.6400 C   0  0  0  0  0  0  0  0  0  0  0  0
    0.3740   -1.3650  -19.9140 C   0  0  0  0  0  0  0  0  0  0  0  0
   -9.3970   -2.2560  -16.3870 O   0  0  0  0  0  0  0  0  0  0  0  0
  1 15  2  0
  2 19  1  0
  3 18  2  0
  5  8  1  1
  5 17  1  0
  6 18  1  1
  6 16  1  0
  7 15  1  0
  8 13  1  0
 10  7  1  0
 10  4  1  6
 11 19  1  6
 11 10  1  0
 12  5  1  0
 12  6  1  0
 13  7  2  3
 14 20  1  6
 14 11  1  0
 14 10  1  0
 15  9  1  0
 17 16  1  0
 18 21  1  0
 20  2  1  0
M  END
$$$$

     RDKit          3D

 20 22  0  0  0  0  0  0  0  0999 V2000
   -2.9290   -3.7410  -16.7220 N   0  0  0  0  0  0  0  0  0  0  0  0
   -9.0200   -2.5110  -16.2700 C   0  0  0  0  0  0  0  0  0  0  0  0
   -7.1790   -1.9140  -17.6070 C   0  0  0  0  0  0  0  0  0  0  0  0
   -2.1210   -0.5180  -17.4940 C   0  0  0  0  0  0  0  0  0  0  0  0
   -1.3360   -2.8000  -18.0040 C   0  0  1  0  0  0  0  0  0  0  0  0
   -7.5420   -2.5600  -16.5170 N   0  0  0  0  0  0  0  0  0  0  0  0
   -5.7640   -1.8000  -17.8460 C   0  0  1  0  0  0  0  0  0  0  0  0
   -2.3510   -1.9100  -17.5590 N   0  0  0  0  0  0  0  0  0  0  0  0
   -3.4840   -2.6770  -17.1680 C   0  0  2  0  0  0  0  0  0  0  0  0
   -4.8880   -2.5160  -16.9250 C   0  0  0  0  0  0  0  0  0  0  0  0
   -0.5320   -1.4640  -19.8180 O   0  0  0  0  0  0  0  0  0  0  0  0
   -8.0700   -1.4070  -18.3570 O   0  0  0  0  0  0  0  0  0  0  0  0
   -5.2780   -1.2730  -19.1200 C   0  0  0  0  0  0  0  0  0  0  0  0
   -6.7520   -3.2330  -15.6800 C   0  0  0  0  0  0  0  0  0  0  0  0
   -1.7610   -4.0180  -17.3610 C   0  0  0  0  0  0  0  0  0  0  0  0
   -1.2080   -2.6660  -19.5450 C   0  0  0  0  0  0  0  0  0  0  0  0
    0.3060   -1.0120  -18.6330 C   0  0  0  0  0  0  0  0  0  0  0  0
   -7.2340   -3.9350  -14.8300 O   0  0  0  0  0  0  0  0  0  0  0  0
   -0.6190   -0.1180  -17.8780 C   0  0  0  0  0  0  0  0  0  0  0  0
   -5.4400   -3.1590  -15.8650 N   0  0  0  0  0  0  0  0  0  0  0  0
  3  6  1  0
  5 16  1  6
  5  8  1  0
  5 15  1  0
  6  2  1  0
  6 14  1  0
  7 13  1  6
  7  3  1  0
  7 10  1  0
  8  4  1  0
  8  9  1  0
  9 10  1  1
  9  1  1  0
 10 20  2  0
 11 16  1  0
 11 17  1  0
 12  3  2  0
 14 18  2  0
 15  1  1  0
 17 19  1  0
 19  4  1  0
 20 14  1  0
M  END
$$$$

     RDKit          3D

 21 23  0  0  0  0  0  0  0  0999 V2000
   -4.2440   -1.9100  -17.9300 O   0  0  0  0  0  0  0  0  0  0  0  0
   -2.0290   -0.8700  -19.5320 O   0  0  0  0  0  0  0  0  0  0  0  0
   -8.0580   -4.3680  -15.2180 O   0  0  0  0  0  0  0  0  0  0  0  0
   -2.0250   -0.8980  -18.1720 C   0  0  2  0  0  0  0  0  0  0  0  0
   -7.5710   -1.6870  -17.4660 C   0  0  0  0  0  0  0  0  0  0  0  0
   -5.9010   -2.8450  -16.5890 N   0  0  0  0  0  0  0  0  0  0  0  0
  -10.0390   -2.1420  -17.2040 C   0  0  0  0  0  0  0  0  0  0  0  0
   -2.8160   -1.5770  -16.0900 C   0  0  0  0  0  0  0  0  0  0  0  0
   -1.9440   -3.6140  -17.1840 O   0  0  0  0  0  0  0  0  0  0  0  0
   -5.4590   -1.9420  -17.4860 C   0  0  0  0  0  0  0  0  0  0  0  0
   -0.0220   -2.2150  -18.3190 O   0  0  0  0  0  0  0  0  0  0  0  0
   -8.2710   -3.5780  -16.0680 C   0  0  0  0  0  0  0  0  0  0  0  0
   -8.9420   -1.3150  -17.6940 C   0  0  1  0  0  0  0  0  0  0  0  0
   -6.5280   -1.2390  -17.9730 C   0  0  0  0  0  0  0  0  0  0  0  0
   -9.4400   -0.0180  -17.6050 C   0  0  0  0  0  0  0  0  0  0  0  0
   -0.1120   -0.5450  -16.5100 N   0  0  0  0  0  0  0  0  0  0  0  0
   -9.5530   -3.5240  -16.8230 C   0  0  0  0  0  0  0  0  0  0  0  0
   -1.6800   -2.3720  -16.5030 C   0  0  1  0  0  0  0  0  0  0  0  0
   -0.9170   -1.4680  -17.3780 C   0  0  1  0  0  0  0  0  0  0  0  0
   -7.2550   -2.7910  -16.6160 C   0  0  2  0  0  0  0  0  0  0  0  0
   -3.2700   -1.0220  -17.3510 C   0  0  2  0  0  0  0  0  0  0  0  0
  1 10  1  0
  4  2  1  6
  4 19  1  0
  4 21  1  0
  7 17  1  0
 10  6  2  0
 12  3  2  0
 13 15  1  1
 13  5  1  0
 13  7  1  0
 14 10  1  0
 14  5  2  0
 17 12  1  0
 18  9  1  6
 18  8  1  0
 19 11  1  0
 19 16  1  1
 19 18  1  0
 20  5  1  0
 20  6  1  6
 20 12  1  0
 21  1  1  6
 21  8  1  0
M  END
$$$$

     RDKit          3D

 20 20  0  0  0  0  0  0  0  0999 V2000
   -5.4500   -3.1800  -15.6350 O   0  0  0  0  0  0  0  0  0  0  0  0
   -0.8780   -0.1720  -15.6990 O   0  0  0  0  0  0  0  0  0  0  0  0
   -7.7090   -1.8770  -17.9790 C   0  0  0  0  0  0  0  0  0  0  0  0
   -9.4030   -3.6460  -16.5640 O   0  0  0  0  0  0  0  0  0  0  0  0
   -1.0530   -2.1640  -19.5130 C   0  0  0  0  0  0  0  0  0  0  0  0
   -1.4590   -1.4100  -18.2200 C   0  0  1  0  0  0  0  0  0  0  0  0
   -5.9310   -2.4960  -16.6740 C   0  0  0  0  0  0  0  0  0  0  0  0
   -1.0950   -1.3210  -20.6160 O   0  0  0  0  0  0  0  0  0  0  0  0
   -0.4900   -0.2290  -18.0800 C   0  0  0  0  0  0  0  0  0  0  0  0
   -8.9570   -1.6760  -18.0330 O   0  0  0  0  0  0  0  0  0  0  0  0
   -7.3040   -2.6350  -16.9840 C   0  0  0  0  0  0  0  0  0  0  0  0
   -2.8670   -1.1030  -18.1470 C   0  0  0  0  0  0  0  0  0  0  0  0
   -5.4100   -1.7510  -18.7670 C   0  0  0  0  0  0  0  0  0  0  0  0
   -6.7710   -1.4820  -19.0090 C   0  0  0  0  0  0  0  0  0  0  0  0
   -8.1340   -3.5630  -16.0970 C   0  0  0  0  0  0  0  0  0  0  0  0
   -0.8830    0.5650  -16.8250 C   0  0  0  0  0  0  0  0  0  0  0  0
   -5.1080   -1.8320  -17.5110 C   0  0  2  0  0  0  0  0  0  0  0  0
   -0.8920   -3.2750  -19.6450 O   0  0  0  0  0  0  0  0  0  0  0  0
   -7.7530   -4.0970  -15.0810 O   0  0  0  0  0  0  0  0  0  0  0  0
   -3.6360   -2.0090  -17.3080 C   0  0  0  0  0  0  0  0  0  0  0  0
  3 11  1  0
  4 15  2  0
  5  6  1  0
  6 12  1  6
  6  9  1  0
  7  1  1  0
  8  5  2  0
  9 16  1  0
 10  3  2  0
 11  7  2  0
 11 15  1  0
 12 20  1  0
 13 17  1  0
 14 13  1  0
 14  3  1  0
 15 19  1  0
 16  2  1  0
 17 20  1  6
 17  7  1  0
 18  5  1  0
M  END
$$$$

     RDKit          3D

 20 21  0  0  0  0  0  0  0  0999 V2000
   -4.0110   -1.8510  -17.9710 C   0  0  1  0  0  0  0  0  0  0  0  0
    0.2860   -2.0090  -17.4790 O   0  0  0  0  0  0  0  0  0  0  0  0
   -8.5280   -3.0070  -16.0910 N   0  0  0  0  0  0  0  0  0  0  0  0
    1.4220   -2.2680  -18.2710 C   0  0  0  0  0  0  0  0  0  0  0  0
   -7.0810   -1.8370  -18.1280 C   0  0  0  0  0  0  0  0  0  0  0  0
   -6.7080   -1.2580  -19.3040 C   0  0  0  0  0  0  0  0  0  0  0  0
   -2.5900   -2.0890  -18.1580 N   0  0  0  0  0  0  0  0  0  0  0  0
   -4.9330   -2.5160  -16.9880 C   0  0  0  0  0  0  0  0  0  0  0  0
   -5.3250   -1.1380  -19.7430 C   0  0  0  0  0  0  0  0  0  0  0  0
   -8.3710   -1.8870  -18.1200 N   0  0  0  0  0  0  0  0  0  0  0  0
   -4.5000   -0.7140  -18.6430 O   0  0  0  0  0  0  0  0  0  0  0  0
   -9.1290   -2.3750  -17.1350 C   0  0  0  0  0  0  0  0  0  0  0  0
   -7.2260   -3.1030  -15.9470 C   0  0  0  0  0  0  0  0  0  0  0  0
   -1.7550   -1.2980  -19.0250 C   0  0  0  0  0  0  0  0  0  0  0  0
   -6.7720   -3.5550  -14.9870 O   0  0  0  0  0  0  0  0  0  0  0  0
   -0.6630   -3.0320  -17.3290 C   0  0  0  0  0  0  0  0  0  0  0  0
   -2.0310   -3.4720  -17.8470 C   0  0  0  0  0  0  0  0  0  0  0  0
   -4.4980   -3.4330  -16.3480 O   0  0  0  0  0  0  0  0  0  0  0  0
   -6.3650   -2.4240  -17.0250 C   0  0  2  0  0  0  0  0  0  0  0  0
   -0.7480   -2.1520  -19.7020 C   0  0  0  0  0  0  0  0  0  0  0  0
  1  7  1  1
  1  8  1  0
  2 16  1  0
  3 13  1  0
  4  2  1  0
  5 10  2  0
  6  5  1  0
  7 17  1  0
  8 18  2  0
  9  6  1  0
  9 11  1  0
 10 12  1  0
 11  1  1  0
 12  3  2  0
 13 15  2  0
 14  7  1  0
 17 16  1  0
 19  5  1  0
 19  8  1  6
 19 13  1  0
 20 14  1  0
M  END
$$$$

     RDKit          3D

 21 23  0  0  0  0  0  0  0  0999 V2000
   -2.2460   -1.4340  -17.6670 C   0  0  0  0  0  0  0  0  0  0  0  0
   -8.0470   -3.9490  -15.5630 N   0  0  0  0  0  0  0  0  0  0  0  0
   -0.9800   -1.8200  -17.4550 C   0  0  0  0  0  0  0  0  0  0  0  0
   -0.2980    0.4390  -17.2320 C   0  0  0  0  0  0  0  0  0  0  0  0
   -8.1650   -1.3690  -18.0340 C   0  0  0  0  0  0  0  0  0  0  0  0
   -6.6440   -2.3980  -16.3310 C   0  0  2  0  0  0  0  0  0  0  0  0
   -7.5430   -1.0270  -18.9350 O   0  0  0  0  0  0  0  0  0  0  0  0
   -9.3000   -0.8990  -17.8800 O   0  0  0  0  0  0  0  0  0  0  0  0
   -9.0890   -4.3020  -17.6610 C   0  0  0  0  0  0  0  0  0  0  0  0
   -7.8010   -2.2700  -17.0370 C   0  0  0  0  0  0  0  0  0  0  0  0
   -1.5410    0.8600  -17.7130 C   0  0  0  0  0  0  0  0  0  0  0  0
   -0.5150   -3.2120  -17.5790 C   0  0  0  0  0  0  0  0  0  0  0  0
   -4.6780   -1.7680  -17.6830 C   0  0  1  0  0  0  0  0  0  0  0  0
   -3.3960   -2.4250  -17.3950 C   0  0  0  0  0  0  0  0  0  0  0  0
   -4.6470   -1.0400  -18.9650 C   0  0  0  0  0  0  0  0  0  0  0  0
   -0.0750   -0.7340  -17.2380 C   0  0  0  0  0  0  0  0  0  0  0  0
   -2.5270   -0.1390  -18.0080 C   0  0  0  0  0  0  0  0  0  0  0  0
   -5.8870   -2.5440  -17.4890 N   0  0  0  0  0  0  0  0  0  0  0  0
   -8.5780   -3.2270  -16.6630 C   0  0  2  0  0  0  0  0  0  0  0  0
   -3.5910    0.0700  -18.9630 C   0  0  0  0  0  0  0  0  0  0  0  0
   -6.8520   -3.3950  -15.3690 C   0  0  0  0  0  0  0  0  0  0  0  0
  1  3  2  0
  1 14  1  0
  2 21  2  0
  3 16  1  0
  5  8  1  0
  6 18  1  6
  6 21  1  0
  7  5  2  0
 10  5  1  0
 10 19  1  0
 10  6  1  0
 11  4  1  0
 12  3  1  0
 13 18  1  6
 13 14  1  0
 15 20  1  0
 15 13  1  0
 16  4  2  0
 17 11  2  0
 17  1  1  0
 19  9  1  6
 19  2  1  0
 20 17  1  0
M  END
$$$$

     RDKit          3D

 21 22  0  0  0  0  0  0  0  0999 V2000
   -5.2680   -0.8700  -19.7490 C   0  0  0  0  0  0  0  0  0  0  0  0
   -7.9350   -3.5360  -15.8190 C   0  0  0  0  0  0  0  0  0  0  0  0
   -3.5930   -0.0740  -21.0470 N   0  0  0  0  0  0  0  0  0  0  0  0
   -3.4210   -2.7410  -15.5910 C   0  0  0  0  0  0  0  0  0  0  0  0
   -7.7810   -4.5990  -15.0480 O   0  0  0  0  0  0  0  0  0  0  0  0
   -1.8030   -0.2990  -19.8810 O   0  0  0  0  0  0  0  0  0  0  0  0
   -4.0450   -0.9780  -18.8730 C   0  0  2  0  0  0  0  0  0  0  0  0
   -4.7270   -2.9600  -15.1710 N   0  0  0  0  0  0  0  0  0  0  0  0
   -4.8840   -0.3200  -20.9630 N   0  0  0  0  0  0  0  0  0  0  0  0
   -5.7320   -2.4410  -16.0030 C   0  0  0  0  0  0  0  0  0  0  0  0
   -1.5510   -1.9600  -16.9700 N   0  0  0  0  0  0  0  0  0  0  0  0
   -7.1240   -2.5650  -15.7610 N   0  0  0  0  0  0  0  0  0  0  0  0
   -9.4290   -1.9210  -17.0350 C   0  0  0  0  0  0  0  0  0  0  0  0
   -0.6880   -2.3280  -15.7170 C   0  0  0  0  0  0  0  0  0  0  0  0
   -1.0970   -0.5840  -17.2520 C   0  0  0  0  0  0  0  0  0  0  0  0
   -3.0430   -0.4170  -19.8560 C   0  0  0  0  0  0  0  0  0  0  0  0
   -9.0620   -3.3720  -16.9020 C   0  0  0  0  0  0  0  0  0  0  0  0
   -4.0650   -1.5660  -17.5590 C   0  0  0  0  0  0  0  0  0  0  0  0
   -5.4410   -1.7030  -17.1230 C   0  0  0  0  0  0  0  0  0  0  0  0
   -6.5660   -1.1700  -19.5990 O   0  0  0  0  0  0  0  0  0  0  0  0
   -2.9530   -2.0580  -16.7250 C   0  0  0  0  0  0  0  0  0  0  0  0
  1 20  2  0
  1  7  1  0
  2 12  1  0
  2  5  2  0
  3  9  2  0
  3 16  1  0
  4  8  2  0
  6 16  2  0
  7 18  1  6
  9  1  1  0
 10 12  1  0
 10  8  1  0
 11 21  1  0
 11 14  1  0
 13 17  1  0
 15 11  1  0
 16  7  1  0
 17  2  1  0
 18 19  1  0
 18 21  2  0
 19 10  2  0
 21  4  1  0
M  END
$$$$

     RDKit          3D

 20 20  0  0  0  0  0  0  0  0999 V2000
   -7.7720   -3.3410  -15.5400 C   0  0  0  0  0  0  0  0  0  0  0  0
   -9.3470   -1.6320  -16.6120 C   0  0  0  0  0  0  0  0  0  0  0  0
   -7.2330   -2.0000  -17.6530 C   0  0  1  0  0  0  0  0  0  0  0  0
   -1.1590   -1.9650  -19.0700 C   0  0  0  0  0  0  0  0  0  0  0  0
   -2.9970   -4.1280  -17.3400 C   0  0  0  0  0  0  0  0  0  0  0  0
   -6.4350   -2.6900  -19.9220 O   0  0  0  0  0  0  0  0  0  0  0  0
   -7.4550   -2.0410  -19.1350 N   0  0  0  0  0  0  0  0  0  0  0  0
   -8.2770   -2.6500  -16.8920 C   0  0  1  0  0  0  0  0  0  0  0  0
   -2.6870   -0.4670  -17.9950 C   0  0  2  0  0  0  0  0  0  0  0  0
   -3.2350   -2.6240  -17.7730 C   0  0  1  0  0  0  0  0  0  0  0  0
   -6.0920   -2.5520  -17.2020 C   0  0  0  0  0  0  0  0  0  0  0  0
   -5.0080   -0.6450  -17.5890 O   0  0  0  0  0  0  0  0  0  0  0  0
   -7.0250   -2.8490  -14.6980 O   0  0  0  0  0  0  0  0  0  0  0  0
   -4.6870   -2.2760  -17.4370 C   0  0  2  0  0  0  0  0  0  0  0  0
   -1.3590   -1.6380  -20.4310 O   0  0  0  0  0  0  0  0  0  0  0  0
   -2.2220    0.6860  -18.6240 C   0  0  0  0  0  0  0  0  0  0  0  0
   -8.1500   -4.5810  -15.3000 O   0  0  0  0  0  0  0  0  0  0  0  0
   -2.3530   -1.7590  -18.1160 C   0  0  1  0  0  0  0  0  0  0  0  0
   -8.8400   -3.5590  -17.7300 O   0  0  0  0  0  0  0  0  0  0  0  0
   -3.8230   -0.1840  -17.1400 O   0  0  0  0  0  0  0  0  0  0  0  0
  1 17  2  0
  1 13  1  0
  3 11  1  6
  3  8  1  0
  6  7  1  0
  7  3  1  0
  8  2  1  1
  8  1  1  0
  9 16  1  6
  9 20  1  0
 10 14  1  0
 10  5  1  1
 12 14  1  0
 12 20  1  0
 14 11  1  6
 15  4  1  0
 18  4  1  6
 18  9  1  0
 18 10  1  0
 19  8  1  0
M  END
$$$$

     RDKit          3D

 15 16  0  0  0  0  0  0  0  0999 V2000
   -8.3180   -2.7620  -16.8820 C   0  0  0  0  0  0  0  0  0  0  0  0
   -4.8460   -1.7850  -18.0620 C   0  0  0  0  0  0  0  0  0  0  0  0
   -3.5710   -2.0160  -17.5410 C   0  0  0  0  0  0  0  0  0  0  0  0
   -1.1250   -2.6240  -16.3350 N   0  0  0  0  0  0  0  0  0  0  0  0
   -6.4270   -1.1630  -19.7410 C   0  0  0  0  0  0  0  0  0  0  0  0
   -1.2140   -2.2560  -17.6250 C   0  0  0  0  0  0  0  0  0  0  0  0
   -2.4140   -1.6130  -18.1690 C   0  0  0  0  0  0  0  0  0  0  0  0
   -3.4860   -2.7740  -16.3020 C   0  0  0  0  0  0  0  0  0  0  0  0
   -5.9210   -2.2300  -17.2310 C   0  0  0  0  0  0  0  0  0  0  0  0
   -8.0380   -3.1610  -15.6540 O   0  0  0  0  0  0  0  0  0  0  0  0
   -5.1840   -1.2780  -19.2720 N   0  0  0  0  0  0  0  0  0  0  0  0
   -9.4650   -3.0140  -17.3770 O   0  0  0  0  0  0  0  0  0  0  0  0
   -7.2110   -2.1180  -17.6180 C   0  0  0  0  0  0  0  0  0  0  0  0
   -7.4970   -1.5540  -18.9180 C   0  0  0  0  0  0  0  0  0  0  0  0
   -2.2720   -2.9310  -15.7170 C   0  0  0  0  0  0  0  0  0  0  0  0
  1 10  1  0
  2  3  1  0
  2  9  2  0
  3  8  2  0
  4 15  2  0
  5 11  2  0
  5 14  1  0
  6  4  1  0
  7  6  1  0
  7  3  1  0
  8 15  1  0
 11  2  1  0
 12  1  2  0
 13  9  1  0
 13  1  1  0
 14 13  2  0
M  END
$$$$

     RDKit          3D

 21 23  0  0  0  0  0  0  0  0999 V2000
   -1.1280   -0.9410  -17.8510 C   0  0  0  0  0  0  0  0  0  0  0  0
   -2.7580   -1.0100  -20.8500 O   0  0  0  0  0  0  0  0  0  0  0  0
   -2.5420   -1.0170  -19.6100 C   0  0  0  0  0  0  0  0  0  0  0  0
   -8.5110   -1.1000  -17.2940 C   0  0  0  0  0  0  0  0  0  0  0  0
   -3.5830   -1.0450  -17.6020 C   0  0  2  0  0  0  0  0  0  0  0  0
   -6.1060   -0.8410  -17.6030 C   0  0  2  0  0  0  0  0  0  0  0  0
   -4.9650   -1.8690  -17.6990 C   0  0  1  0  0  0  0  0  0  0  0  0
   -3.3690   -0.3890  -18.7780 N   0  0  0  0  0  0  0  0  0  0  0  0
   -7.3450   -4.4810  -14.9360 O   0  0  0  0  0  0  0  0  0  0  0  0
   -8.9490   -3.9780  -16.3210 O   0  0  0  0  0  0  0  0  0  0  0  0
   -6.8870   -2.7980  -16.4510 C   0  0  2  0  0  0  0  0  0  0  0  0
   -1.3520   -1.7190  -19.0920 C   0  0  1  0  0  0  0  0  0  0  0  0
   -3.9150   -4.0230  -16.3030 O   0  0  0  0  0  0  0  0  0  0  0  0
   -4.8960   -2.5250  -14.9720 O   0  0  0  0  0  0  0  0  0  0  0  0
   -0.1810   -1.7200  -20.1670 C   0  0  0  0  0  0  0  0  0  0  0  0
   -7.2880   -1.6090  -17.0790 C   0  0  0  0  0  0  0  0  0  0  0  0
   -7.7980   -3.7630  -15.8380 C   0  0  0  0  0  0  0  0  0  0  0  0
   -6.7100   -2.1740  -19.7480 C   0  0  0  0  0  0  0  0  0  0  0  0
   -2.4000   -1.1930  -16.8400 C   0  0  0  0  0  0  0  0  0  0  0  0
   -5.6890   -1.3030  -18.9120 C   0  0  1  0  0  0  0  0  0  0  0  0
   -5.0790   -3.0600  -16.2290 S   0  0  1  0  0  0  0  0  0  0  0  0
  1 19  1  0
  2  3  2  0
  3 12  1  0
  3  8  1  0
  4 16  2  0
  5 19  1  6
  6 16  1  1
  7  6  1  0
  7  5  1  6
  7 21  1  0
  8  5  1  0
 10 17  2  0
 21 11  1  1
 11 17  1  1
 12 15  1  6
 12  1  1  0
 13 21  2  0
 16 11  1  0
 17  9  1  0
 20 18  1  1
 20  7  1  0
 20  6  1  0
 21 14  2  0
M  END
$$$$

     RDKit          3D

 21 22  0  0  0  0  0  0  0  0999 V2000
   -1.5850   -2.6020  -18.7430 C   0  0  0  0  0  0  0  0  0  0  0  0
   -1.2050   -1.8080  -19.9530 C   0  0  0  0  0  0  0  0  0  0  0  0
  -10.3470   -3.5100  -17.6180 C   0  0  0  0  0  0  0  0  0  0  0  0
   -5.4440   -2.6640  -14.9010 O   0  0  0  0  0  0  0  0  0  0  0  0
   -9.2740   -2.4910  -17.7870 O   0  0  0  0  0  0  0  0  0  0  0  0
   -2.7760    0.1650  -19.4120 C   0  0  0  0  0  0  0  0  0  0  0  0
   -5.0560   -0.5980  -20.0680 O   0  0  0  0  0  0  0  0  0  0  0  0
   -8.3430   -3.7920  -16.0130 O   0  0  0  0  0  0  0  0  0  0  0  0
   -7.0130   -2.0320  -16.9490 C   0  0  1  0  0  0  0  0  0  0  0  0
   -7.4440   -1.4260  -19.2960 O   0  0  0  0  0  0  0  0  0  0  0  0
   -2.7660   -3.8650  -16.1080 C   0  0  0  0  0  0  0  0  0  0  0  0
   -4.6210   -3.0740  -17.4110 O   0  0  0  0  0  0  0  0  0  0  0  0
   -3.4530   -3.2120  -17.3930 C   0  0  1  0  0  0  0  0  0  0  0  0
   -1.4380   -0.3150  -20.1800 C   0  0  0  0  0  0  0  0  0  0  0  0
   -6.5350   -1.4460  -18.3090 C   0  0  2  0  0  0  0  0  0  0  0  0
   -5.0330   -1.3580  -19.1340 C   0  0  2  0  0  0  0  0  0  0  0  0
   -2.0480   -3.7570  -15.2510 O   0  0  0  0  0  0  0  0  0  0  0  0
   -3.6120   -0.8280  -18.6360 C   0  0  1  0  0  0  0  0  0  0  0  0
   -8.3760   -2.8500  -16.8720 C   0  0  0  0  0  0  0  0  0  0  0  0
   -2.7050   -1.8900  -17.9840 C   0  0  2  0  0  0  0  0  0  0  0  0
   -5.6920   -2.8520  -16.4040 C   0  0  0  0  0  0  0  0  0  0  0  0
  2  1  1  0
  5  3  1  0
  5 19  1  0
  9 19  1  6
  9 21  1  0
 11 17  2  0
 12 13  1  0
 12 21  1  0
 13 11  1  1
 14  2  1  0
 14  6  1  0
 15 10  1  6
 15  9  1  0
 16  7  1  6
 16 18  1  0
 16 15  1  0
 18  6  1  6
 18 20  1  0
 19  8  2  0
 20  1  1  6
 20 13  1  0
 21  4  2  0
M  END
$$$$

     RDKit          3D

 20 25  0  0  0  0  0  0  0  0999 V2000
   -4.3430   -0.8880  -18.3820 C   0  0  0  0  0  0  0  0  0  0  0  0
   -3.8850   -2.0480  -17.5620 C   0  0  2  0  0  0  0  0  0  0  0  0
   -6.3670   -2.9640  -18.8530 F   0  0  0  0  0  0  0  0  0  0  0  0
   -4.6370   -0.0860  -21.4080 O   0  0  0  0  0  0  0  0  0  0  0  0
   -7.4770   -3.4690  -15.5730 C   0  0  0  0  0  0  0  0  0  0  0  0
   -6.6060   -1.2130  -18.1930 C   0  0  1  0  0  0  0  0  0  0  0  0
   -4.4050   -2.4890  -15.9450 C   0  0  0  0  0  0  0  0  0  0  0  0
   -3.1660   -1.0570  -17.2110 C   0  0  2  0  0  0  0  0  0  0  0  0
   -3.5250   -1.2250  -18.3460 C   0  0  2  0  0  0  0  0  0  0  0  0
   -2.1200   -1.9160  -18.4200 C   0  0  0  0  0  0  0  0  0  0  0  0
   -5.9400   -3.0380  -16.0910 C   0  0  2  0  0  0  0  0  0  0  0  0
   -1.9330   -0.6610  -18.7120 C   0  0  2  0  0  0  0  0  0  0  0  0
   -8.2870   -2.6780  -16.1880 C   0  0  0  0  0  0  0  0  0  0  0  0
   -5.0790   -1.1890  -17.6200 C   0  0  1  0  0  0  0  0  0  0  0  0
   -4.0550   -0.0640  -19.7830 C   0  0  2  0  0  0  0  0  0  0  0  0
   -7.6480   -4.2610  -14.7900 O   0  0  0  0  0  0  0  0  0  0  0  0
   -6.0050   -2.7950  -18.0340 C   0  0  1  0  0  0  0  0  0  0  0  0
   -2.2950    0.1140  -17.4630 C   0  0  0  0  0  0  0  0  0  0  0  0
   -2.6030   -0.5150  -19.9370 C   0  0  0  0  0  0  0  0  0  0  0  0
   -8.2040   -2.1180  -17.6560 C   0  0  0  0  0  0  0  0  0  0  0  0
  1  9  1  0
 14  1  1  1
  2  8  1  1
 17  3  1  6
 15  4  1  6
  5 16  2  0
  6 17  1  0
  6 20  1  1
  6 14  1  0
  9  2  1  0
  9  8  1  0
  9 10  1  6
 11  7  1  1
 11  5  1  0
 12 10  1  0
 12 18  1  1
 13  5  1  0
 14  2  1  0
 15  1  1  0
 17 14  1  0
 17 11  1  0
  8 18  1  6
 19 15  1  0
 19 12  1  0
 20 13  1  0
M  END
$$$$

     RDKit          3D

 23 24  0  0  0  0  0  0  0  0999 V2000
   -0.8670    0.1280  -19.5360 O   0  0  0  0  0  0  0  0  0  0  0  0
   -5.1000   -2.6840  -16.1020 C   0  0  0  0  0  0  0  0  0  0  0  0
   -7.4610   -2.9310  -15.6100 C   0  0  0  0  0  0  0  0  0  0  0  0
   -6.6350   -1.9140  -19.3340 C   0  0  0  0  0  0  0  0  0  0  0  0
   -3.8940   -1.6600  -17.9280 C   0  0  0  0  0  0  0  0  0  0  0  0
   -8.5450   -3.7280  -16.2780 C   0  0  0  0  0  0  0  0  0  0  0  0
   -7.2990   -0.8040  -19.9970 O   0  0  0  0  0  0  0  0  0  0  0  0
   -5.1500   -0.0040  -21.4130 O   0  0  0  0  0  0  0  0  0  0  0  0
   -2.6580   -3.0410  -16.5400 C   0  0  0  0  0  0  0  0  0  0  0  0
   -8.4290   -1.6490  -17.6370 C   0  0  0  0  0  0  0  0  0  0  0  0
   -0.6270   -2.1660  -19.4010 O   0  0  0  0  0  0  0  0  0  0  0  0
   -4.9070   -2.9720  -14.9010 O   0  0  0  0  0  0  0  0  0  0  0  0
   -6.4020   -2.5370  -16.5430 N   0  0  0  0  0  0  0  0  0  0  0  0
   -3.8820   -2.4020  -16.8550 C   0  0  0  0  0  0  0  0  0  0  0  0
   -4.2070   -0.3750  -20.4860 O   0  0  0  0  0  0  0  0  0  0  0  0
   -6.8860   -1.8460  -17.7850 C   0  0  1  0  0  0  0  0  0  0  0  0
   -0.3870   -1.5360  -20.7020 C   0  0  0  0  0  0  0  0  0  0  0  0
   -1.4930   -2.9780  -17.2750 C   0  0  0  0  0  0  0  0  0  0  0  0
   -1.5900   -2.1720  -18.3730 C   0  0  0  0  0  0  0  0  0  0  0  0
   -9.0160   -3.0170  -17.5810 C   0  0  0  0  0  0  0  0  0  0  0  0
   -2.6170   -1.3010  -18.5470 C   0  0  1  0  0  0  0  0  0  0  0  0
   -3.1390    0.0620  -20.4880 C   0  0  0  0  0  0  0  0  0  0  0  0
   -2.1880   -0.3130  -19.4000 C   0  0  0  0  0  0  0  0  0  0  0  0
  1 23  1  0
  2 12  2  0
  5 14  2  0
  6  3  1  0
  7  4  1  0
  8 15  1  0
 10 20  1  0
 13  2  1  0
 13  3  1  0
 14  9  1  0
 14  2  1  0
 16  4  1  6
 16 10  1  0
 16 13  1  0
 17 11  1  0
 18  9  1  0
 19 11  1  0
 19 18  1  0
 20  6  1  0
 21 23  1  0
 21 19  1  6
 21  5  1  0
 22 15  1  0
 22 23  2  3
M  END
$$$$

     RDKit          3D

 19 20  0  0  0  0  0  0  0  0999 V2000
   -6.7540   -3.1790  -16.0100 C   0  0  0  0  0  0  0  0  0  0  0  0
   -2.6110   -0.3230  -19.2440 C   0  0  0  0  0  0  0  0  0  0  0  0
   -1.5260   -1.9090  -17.4300 C   0  0  0  0  0  0  0  0  0  0  0  0
   -3.8460   -0.7660  -18.8400 C   0  0  0  0  0  0  0  0  0  0  0  0
   -6.8090   -3.0140  -19.2010 O   0  0  0  0  0  0  0  0  0  0  0  0
   -0.9920    0.2500  -17.7610 F   0  0  0  0  0  0  0  0  0  0  0  0
   -1.3940   -0.7960  -18.4300 C   0  0  2  0  0  0  0  0  0  0  0  0
   -2.8750   -2.0570  -16.9410 C   0  0  2  0  0  0  0  0  0  0  0  0
   -3.0310   -2.8180  -15.6930 C   0  0  0  0  0  0  0  0  0  0  0  0
   -7.0900   -3.7690  -14.9440 O   0  0  0  0  0  0  0  0  0  0  0  0
   -7.9240   -1.0120  -18.4690 O   0  0  0  0  0  0  0  0  0  0  0  0
   -5.4000   -3.0000  -16.3320 N   0  0  0  0  0  0  0  0  0  0  0  0
   -7.5850   -2.5590  -16.9700 C   0  0  2  0  0  0  0  0  0  0  0  0
   -4.0180   -1.6970  -17.7430 C   0  0  1  0  0  0  0  0  0  0  0  0
   -5.4320   -2.0190  -17.3970 C   0  0  1  0  0  0  0  0  0  0  0  0
   -9.1710   -2.6910  -16.9090 C   0  0  0  0  0  0  0  0  0  0  0  0
   -3.7280   -2.3070  -14.8030 O   0  0  0  0  0  0  0  0  0  0  0  0
   -6.8640   -2.0390  -18.1320 C   0  0  1  0  0  0  0  0  0  0  0  0
   -2.4110   -3.8450  -15.5870 O   0  0  0  0  0  0  0  0  0  0  0  0
  1 10  2  0
  2  4  2  0
  2  7  1  0
  3  8  1  0
 18  5  1  6
  7  6  1  1
  7  3  1  0
  8  9  1  6
  9 19  2  0
  9 17  1  0
 11 18  1  0
 12  1  1  0
 13 16  1  6
 13  1  1  0
 14  4  1  1
 14 15  1  0
 14  8  1  0
 15 12  1  6
 18 15  1  0
 18 13  1  0
M  END
$$$$

     RDKit          3D

 20 22  0  0  0  0  0  0  0  0999 V2000
   -1.1360    0.8540  -17.9020 C   0  0  0  0  0  0  0  0  0  0  0  0
   -7.0330   -1.2430  -17.5480 C   0  0  0  0  0  0  0  0  0  0  0  0
   -2.5290   -0.9270  -17.0750 C   0  0  0  0  0  0  0  0  0  0  0  0
   -4.0650   -1.6780  -18.5740 C   0  0  0  0  0  0  0  0  0  0  0  0
   -3.0800   -1.1890  -18.4560 C   0  0  0  0  0  0  0  0  0  0  0  0
   -2.3100   -0.4870  -19.5220 N   0  0  0  0  0  0  0  0  0  0  0  0
   -9.4440   -0.8530  -16.7830 O   0  0  0  0  0  0  0  0  0  0  0  0
   -7.5210   -2.9490  -16.2560 C   0  0  0  0  0  0  0  0  0  0  0  0
   -1.6870    0.0560  -16.8340 C   0  0  0  0  0  0  0  0  0  0  0  0
   -4.7870   -2.4390  -17.3050 C   0  0  1  0  0  0  0  0  0  0  0  0
   -3.6120   -3.0150  -16.4200 C   0  0  0  0  0  0  0  0  0  0  0  0
   -1.3420    0.4710  -19.3250 C   0  0  0  0  0  0  0  0  0  0  0  0
   -7.8570   -3.5370  -15.3020 O   0  0  0  0  0  0  0  0  0  0  0  0
   -5.7570   -2.7380  -15.1550 O   0  0  0  0  0  0  0  0  0  0  0  0
   -9.0020   -2.9070  -17.2180 C   0  0  0  0  0  0  0  0  0  0  0  0
   -8.9810   -1.8770  -17.7720 C   0  0  2  0  0  0  0  0  0  0  0  0
   -6.3390   -2.3260  -16.6520 S   0  0  1  0  0  0  0  0  0  0  0  0
   -2.7710   -1.8930  -16.3010 N   0  0  0  0  0  0  0  0  0  0  0  0
   -7.2530   -2.0090  -18.6880 C   0  0  2  0  0  0  0  0  0  0  0  0
   -6.6420   -3.0440  -19.2910 O   0  0  0  0  0  0  0  0  0  0  0  0
  1  9  2  0
  2 17  1  0
  3  9  1  0
  3 18  1  0
  4  5  1  0
  5  3  2  0
  6 12  2  0
  6  5  1  0
  8 13  2  0
 10  4  1  1
 10 17  1  0
 10 11  1  0
 11 18  1  0
 12  1  1  0
 15  8  1  0
 16 15  1  0
 16  7  1  1
 17  8  1  0
 17 14  1  1
 19 20  1  1
 19 16  1  0
 19  2  1  0
M  END
$$$$

     RDKit          3D

 17 18  0  0  0  0  0  0  0  0999 V2000
   -3.2480   -3.0540  -16.1860 C   0  0  0  0  0  0  0  0  0  0  0  0
   -1.7680   -3.1520  -14.0620 C   0  0  0  0  0  0  0  0  0  0  0  0
   -4.6800   -0.1790  -20.8400 C   0  0  0  0  0  0  0  0  0  0  0  0
   -0.8860   -2.2580  -20.1150 C   0  0  0  0  0  0  0  0  0  0  0  0
   -3.4510   -2.5950  -17.4270 C   0  0  0  0  0  0  0  0  0  0  0  0
   -6.6990   -2.7620  -19.3720 N   0  0  0  0  0  0  0  0  0  0  0  0
   -4.6430   -2.4780  -18.1960 C   0  0  0  0  0  0  0  0  0  0  0  0
   -6.5990   -1.2910  -19.7680 C   0  0  0  0  0  0  0  0  0  0  0  0
   -2.6030   -1.9370  -18.3110 C   0  0  0  0  0  0  0  0  0  0  0  0
   -4.2920   -1.2530  -19.0090 C   0  0  1  0  0  0  0  0  0  0  0  0
   -1.3420   -2.1210  -17.8350 C   0  0  0  0  0  0  0  0  0  0  0  0
   -1.0160   -2.4750  -16.4420 C   0  0  0  0  0  0  0  0  0  0  0  0
   -1.9010   -0.6250  -19.7870 C   0  0  0  0  0  0  0  0  0  0  0  0
   -3.0240   -1.2690  -19.2320 N   0  0  0  0  0  0  0  0  0  0  0  0
   -2.0610   -2.8790  -15.5770 C   0  0  0  0  0  0  0  0  0  0  0  0
   -7.4880   -0.5870  -20.1880 O   0  0  0  0  0  0  0  0  0  0  0  0
   -5.2870   -1.0560  -19.8170 N   0  0  0  0  0  0  0  0  0  0  0  0
  1 15  2  0
  3 17  1  0
  4 13  1  0
  5  1  1  0
  7  5  1  0
  8  6  1  0
  9 11  1  0
  9  5  2  0
 10 17  1  6
 10  7  1  0
 11 12  2  0
 12 15  1  0
 13 14  1  0
 14 10  1  0
 14  9  1  0
 15  2  1  0
 16  8  2  0
 17  8  1  0
M  END
$$$$

     RDKit          3D

 18 21  0  0  0  0  0  0  0  0999 V2000
   -8.3270   -4.2690  -15.2670 O   0  0  0  0  0  0  0  0  0  0  0  0
  -10.3400   -2.1010  -17.3790 C   0  0  0  0  0  0  0  0  0  0  0  0
   -9.6440   -1.2210  -16.4600 C   0  0  0  0  0  0  0  0  0  0  0  0
   -5.6460   -3.3520  -15.6940 N   0  0  0  0  0  0  0  0  0  0  0  0
   -5.8820   -1.6070  -17.2020 C   0  0  0  0  0  0  0  0  0  0  0  0
   -2.0550   -1.2150  -15.8700 O   0  0  0  0  0  0  0  0  0  0  0  0
   -4.7720   -0.7310  -17.8400 C   0  0  0  0  0  0  0  0  0  0  0  0
   -8.9000   -1.9770  -17.2950 C   0  0  2  0  0  0  0  0  0  0  0  0
   -8.2610   -1.2340  -17.4300 O   0  0  0  0  0  0  0  0  0  0  0  0
   -3.2660   -1.8150  -18.1890 P   0  0  0  0  0  0  0  0  0  0  0  0
   -3.2480   -0.6470  -19.6080 C   0  0  0  0  0  0  0  0  0  0  0  0
   -3.8970   -3.2480  -17.2130 C   0  0  0  0  0  0  0  0  0  0  0  0
   -2.4280   -1.1280  -17.0720 C   0  0  2  0  0  0  0  0  0  0  0  0
   -1.2220   -1.2730  -18.4240 C   0  0  1  0  0  0  0  0  0  0  0  0
   -0.5530   -2.5940  -18.0370 O   0  0  0  0  0  0  0  0  0  0  0  0
   -4.9430   -2.3590  -16.5970 C   0  0  2  0  0  0  0  0  0  0  0  0
   -8.1540   -3.0620  -16.2960 C   0  0  0  0  0  0  0  0  0  0  0  0
   -6.8410   -2.7800  -16.3830 N   0  0  0  0  0  0  0  0  0  0  0  0
  2  8  1  0
  2  3  1  0
  5  7  1  0
  5 16  1  0
  5 18  1  0
  8  3  1  0
  8 17  1  0
  8  9  1  6
 10  7  1  0
 10 12  1  0
 10 13  1  0
 11 10  1  0
 13  6  1  1
 14 10  1  0
 14 15  1  1
 14 13  1  0
 16 12  1  6
 16  4  1  0
 17  1  2  0
 18 17  1  0
 18  4  1  0
M  END
$$$$

     RDKit          3D

 21 24  0  0  0  0  0  0  0  0999 V2000
   -2.3210   -2.6550  -17.3800 C   0  0  2  0  0  0  0  0  0  0  0  0
   -2.7000   -3.2080  -15.8760 C   0  0  2  0  0  0  0  0  0  0  0  0
   -3.4510   -1.9310  -16.8140 C   0  0  2  0  0  0  0  0  0  0  0  0
   -1.6190   -1.0510  -15.4430 C   0  0  0  0  0  0  0  0  0  0  0  0
   -4.1820   -1.6100  -19.2610 C   0  0  0  0  0  0  0  0  0  0  0  0
   -5.9480   -2.0550  -17.4900 C   0  0  0  0  0  0  0  0  0  0  0  0
   -1.4910   -2.5380  -15.9940 C   0  0  2  0  0  0  0  0  0  0  0  0
   -3.9200   -0.3710  -20.1750 C   0  0  0  0  0  0  0  0  0  0  0  0
    0.2130    0.0370  -16.3600 N   0  0  0  0  0  0  0  0  0  0  0  0
   -7.0740   -1.5840  -18.2720 C   0  0  0  0  0  0  0  0  0  0  0  0
   -4.6610   -0.1910  -21.2490 N   0  0  0  0  0  0  0  0  0  0  0  0
   -6.1230   -2.8210  -16.4220 C   0  0  0  0  0  0  0  0  0  0  0  0
   -7.4360   -3.0500  -15.9970 C   0  0  0  0  0  0  0  0  0  0  0  0
   -2.9540    0.2000  -19.8950 O   0  0  0  0  0  0  0  0  0  0  0  0
   -7.0170   -1.0220  -19.5370 F   0  0  0  0  0  0  0  0  0  0  0  0
   -8.5460   -2.4650  -16.5760 C   0  0  0  0  0  0  0  0  0  0  0  0
   -8.3580   -1.6880  -17.7240 C   0  0  0  0  0  0  0  0  0  0  0  0
   -1.1440    0.0890  -16.1820 C   0  0  0  0  0  0  0  0  0  0  0  0
   -7.6880   -4.0110  -15.0000 O   0  0  0  0  0  0  0  0  0  0  0  0
   -0.9290   -2.5410  -17.3220 C   0  0  0  0  0  0  0  0  0  0  0  0
   -4.5700   -1.5400  -17.9630 C   0  0  1  0  0  0  0  0  0  0  0  0
  1 20  1  6
  1  3  1  0
  1  7  1  0
  1  2  1  0
  3  2  1  0
 21  5  1  6
  6 12  2  0
  2  7  1  1
  7  4  1  1
  8 14  2  0
  8  5  1  0
  9 18  1  0
 10 17  2  0
 10  6  1  0
 11  8  1  0
 12 13  1  0
 13 19  1  0
 15 10  1  0
 16 13  2  0
 17 16  1  0
 18  4  1  0
 20  7  1  0
 21  6  1  0
  3 21  1  6
M  END
$$$$

     RDKit          3D

 22 25  0  0  0  0  0  0  0  0999 V2000
   -2.8320   -0.6440  -18.5740 C   0  0  2  0  0  0  0  0  0  0  0  0
   -6.7300   -1.8730  -17.3370 C   0  0  1  0  0  0  0  0  0  0  0  0
   -4.8730   -1.4950  -18.6650 C   0  0  0  0  0  0  0  0  0  0  0  0
   -4.1480   -2.0300  -17.6600 C   0  0  0  0  0  0  0  0  0  0  0  0
   -6.7690   -2.9900  -19.4230 O   0  0  0  0  0  0  0  0  0  0  0  0
   -5.8680   -2.9010  -16.6940 N   0  0  0  0  0  0  0  0  0  0  0  0
   -2.1530    0.5240  -18.3010 C   0  0  0  0  0  0  0  0  0  0  0  0
   -4.0300   -0.6480  -19.2690 C   0  0  0  0  0  0  0  0  0  0  0  0
   -0.9830    2.2120  -18.6850 N   0  0  0  0  0  0  0  0  0  0  0  0
   -6.3530   -1.7530  -18.8450 C   0  0  1  0  0  0  0  0  0  0  0  0
   -6.8750   -0.8010  -19.7500 O   0  0  0  0  0  0  0  0  0  0  0  0
   -1.1060    2.1860  -17.3600 C   0  0  0  0  0  0  0  0  0  0  0  0
   -2.0870   -2.9100  -17.1820 C   0  0  0  0  0  0  0  0  0  0  0  0
   -2.8190   -1.7790  -17.8420 N   0  0  0  0  0  0  0  0  0  0  0  0
   -1.7360    1.2750  -19.3170 N   0  0  0  0  0  0  0  0  0  0  0  0
   -3.9580   -2.6480  -15.3480 C   0  0  0  0  0  0  0  0  0  0  0  0
   -1.8440    1.0350  -17.0720 C   0  0  0  0  0  0  0  0  0  0  0  0
   -9.0430   -1.3590  -17.7510 O   0  0  0  0  0  0  0  0  0  0  0  0
   -8.2550   -2.0350  -17.0430 C   0  0  0  0  0  0  0  0  0  0  0  0
   -4.3690   -2.9750  -16.7090 C   0  0  2  0  0  0  0  0  0  0  0  0
   -3.1290   -3.9410  -17.1500 C   0  0  0  0  0  0  0  0  0  0  0  0
   -8.5340   -2.7690  -16.1500 O   0  0  0  0  0  0  0  0  0  0  0  0
  1  7  1  1
  1 14  1  0
  2 19  1  6
  2  6  1  0
  3  4  2  0
  4 20  1  0
 10  5  1  6
  7 17  1  0
  8  3  1  0
  8  1  1  0
  9 12  2  0
 10  3  1  0
 10  2  1  0
 11 10  1  0
 12 17  1  0
 13 21  1  0
 14  4  1  0
 14 13  1  0
 15  9  1  0
 15  7  2  0
 18 19  2  0
 19 22  1  0
 20  6  1  0
 20 16  1  1
 21 20  1  0
M  END
$$$$

     RDKit          3D

 21 22  0  0  0  0  0  0  0  0999 V2000
   -1.7590   -2.3540  -16.7340 C   0  0  0  0  0  0  0  0  0  0  0  0
   -6.9660   -2.2920  -18.4610 C   0  0  0  0  0  0  0  0  0  0  0  0
   -6.9560   -3.2240  -19.1880 O   0  0  0  0  0  0  0  0  0  0  0  0
   -4.1420   -2.0230  -17.3030 C   0  0  0  0  0  0  0  0  0  0  0  0
   -3.6110   -1.4660  -18.6330 C   0  0  0  0  0  0  0  0  0  0  0  0
    1.4530   -1.4310  -20.4290 C   0  0  0  0  0  0  0  0  0  0  0  0
   -3.1070   -2.4120  -16.4060 C   0  0  0  0  0  0  0  0  0  0  0  0
   -4.9430   -1.0180  -19.2120 C   0  0  0  0  0  0  0  0  0  0  0  0
    0.3490   -2.4040  -19.9380 C   0  0  0  0  0  0  0  0  0  0  0  0
    1.8700   -0.5280  -19.1910 C   0  0  0  0  0  0  0  0  0  0  0  0
   -5.6780   -1.9920  -16.8590 C   0  0  2  0  0  0  0  0  0  0  0  0
   -3.5450   -2.8980  -15.1980 O   0  0  0  0  0  0  0  0  0  0  0  0
   -8.8210   -2.4910  -16.8620 C   0  0  0  0  0  0  0  0  0  0  0  0
   -6.0210   -3.0720  -15.9030 O   0  0  0  0  0  0  0  0  0  0  0  0
    0.1350   -2.6010  -18.4000 C   0  0  0  0  0  0  0  0  0  0  0  0
   -2.4930   -1.4810  -18.8840 C   0  0  0  0  0  0  0  0  0  0  0  0
   -9.4720   -3.6990  -17.1290 C   0  0  0  0  0  0  0  0  0  0  0  0
   -1.2870   -2.1390  -18.0580 C   0  0  0  0  0  0  0  0  0  0  0  0
   -8.1320   -1.5730  -17.9530 C   0  0  0  0  0  0  0  0  0  0  0  0
   -8.8670   -4.6400  -15.9990 O   0  0  0  0  0  0  0  0  0  0  0  0
   -5.7500   -1.3770  -18.1450 N   0  0  0  0  0  0  0  0  0  0  0  0
  1  7  2  0
  2 21  1  0
  2 19  1  0
  3  2  2  0
  4 11  1  0
  4  7  1  0
  5  4  2  0
  6  9  1  0
  6 10  1  0
  7 12  1  0
  8  5  1  0
  8 21  1  0
  9 15  1  0
 11 14  1  6
 15 18  1  0
 16  5  1  0
 16 18  2  0
 17 13  1  0
 17 20  1  0
 18  1  1  0
 19 13  1  0
 21 11  1  0
M  END
$$$$

     RDKit          3D

 15 15  0  0  0  0  0  0  0  0999 V2000
   -0.1040   -1.3840  -17.6210 N   0  0  0  0  0  0  0  0  0  0  0  0
   -0.9070   -0.4040  -17.3560 C   0  0  0  0  0  0  0  0  0  0  0  0
   -4.4820   -2.9880  -16.3760 C   0  0  0  0  0  0  0  0  0  0  0  0
   -3.1040   -3.0430  -15.9980 C   0  0  0  0  0  0  0  0  0  0  0  0
   -0.6710   -2.5670  -17.1060 C   0  0  0  0  0  0  0  0  0  0  0  0
   -0.8810   -1.4960  -20.2200 C   0  0  0  0  0  0  0  0  0  0  0  0
   -6.5600   -2.9440  -18.9890 O   0  0  0  0  0  0  0  0  0  0  0  0
   -1.6090   -2.5060  -19.2480 C   0  0  0  0  0  0  0  0  0  0  0  0
   -6.3080   -2.1360  -18.1270 S   0  0  1  0  0  0  0  0  0  0  0  0
   -3.9080   -1.5420  -18.3890 C   0  0  0  0  0  0  0  0  0  0  0  0
   -2.2710   -1.9200  -18.3390 C   0  0  1  0  0  0  0  0  0  0  0  0
   -7.3860   -1.2170  -17.5020 O   0  0  0  0  0  0  0  0  0  0  0  0
   -5.3390   -2.7820  -16.9140 C   0  0  0  0  0  0  0  0  0  0  0  0
   -2.1400   -2.4040  -17.1140 C   0  0  1  0  0  0  0  0  0  0  0  0
   -5.0850   -1.1600  -18.1330 C   0  0  0  0  0  0  0  0  0  0  0  0
  1  2  1  0
  1  5  1  0
  3  4  1  0
  6  8  1  0
  7  9  2  0
  9 12  2  0
  9 13  1  1
 10 11  1  0
 10 15  1  0
 11  8  1  6
 11 14  1  0
 13  3  3  0
 14  5  1  6
 14  4  1  0
 15  9  1  0
M  END
$$$$

     RDKit          3D

 20 20  0  0  0  0  0  0  0  0999 V2000
   -5.4370   -3.6200  -15.4740 O   0  0  0  0  0  0  0  0  0  0  0  0
   -1.8150   -0.6630  -17.4930 C   0  0  0  0  0  0  0  0  0  0  0  0
   -4.6550   -2.1840  -17.5890 C   0  0  0  0  0  0  0  0  0  0  0  0
   -8.0020   -1.1560  -17.5850 C   0  0  2  0  0  0  0  0  0  0  0  0
   -3.8100   -1.6140  -18.4340 C   0  0  1  0  0  0  0  0  0  0  0  0
   -8.0180   -4.2000  -15.3990 O   0  0  0  0  0  0  0  0  0  0  0  0
   -5.9210   -2.0440  -17.0040 N   0  0  0  0  0  0  0  0  0  0  0  0
   -6.2990   -2.9520  -16.0460 C   0  0  0  0  0  0  0  0  0  0  0  0
   -2.7580   -0.7360  -20.1740 C   0  0  0  0  0  0  0  0  0  0  0  0
   -2.3560   -3.0700  -17.1240 C   0  0  0  0  0  0  0  0  0  0  0  0
   -2.7280   -3.7730  -16.3590 O   0  0  0  0  0  0  0  0  0  0  0  0
   -1.7600    0.4600  -19.6070 C   0  0  0  0  0  0  0  0  0  0  0  0
   -4.1730   -0.9850  -19.6220 C   0  0  0  0  0  0  0  0  0  0  0  0
   -6.5060   -1.1850  -17.9490 C   0  0  1  0  0  0  0  0  0  0  0  0
   -1.3250   -3.5610  -17.8720 N   0  0  0  0  0  0  0  0  0  0  0  0
   -1.4560   -0.6060  -19.5200 C   0  0  0  0  0  0  0  0  0  0  0  0
   -7.4000   -3.0790  -15.5590 N   0  0  0  0  0  0  0  0  0  0  0  0
   -7.4720   -2.0850  -18.6930 C   0  0  0  0  0  0  0  0  0  0  0  0
   -2.8970   -1.7150  -17.5680 C   0  0  1  0  0  0  0  0  0  0  0  0
   -8.8580   -0.6360  -17.4750 O   0  0  0  0  0  0  0  0  0  0  0  0
  3  7  1  0
  4 20  1  6
  5 13  1  1
  5  3  1  0
  5 19  1  0
  7  8  1  0
  8 17  1  0
  8  1  2  0
  9 13  1  0
  9 16  1  0
 10 11  2  0
 12 16  1  0
 14  4  1  0
 14  7  1  1
 15 10  1  0
 17  6  1  0
 18 14  1  0
 18  4  1  0
 19  2  1  6
 19 10  1  0
M  END
$$$$

     RDKit          3D

 20 21  0  0  0  0  0  0  0  0999 V2000
   -5.4900   -3.0750  -15.9700 N   0  0  0  0  0  0  0  0  0  0  0  0
   -7.9680   -3.5310  -15.6260 C   0  0  0  0  0  0  0  0  0  0  0  0
  -10.5010   -1.1840  -17.2010 C   0  0  0  0  0  0  0  0  0  0  0  0
   -0.6160   -2.8470  -17.9040 O   0  0  0  0  0  0  0  0  0  0  0  0
   -6.8570   -2.9690  -16.2010 C   0  0  0  0  0  0  0  0  0  0  0  0
   -1.9620   -3.1510  -16.1750 C   0  0  0  0  0  0  0  0  0  0  0  0
   -7.1050   -1.0290  -19.8580 O   0  0  0  0  0  0  0  0  0  0  0  0
   -9.2460   -1.9760  -16.9700 C   0  0  0  0  0  0  0  0  0  0  0  0
   -2.5830   -0.8820  -19.3480 C   0  0  1  0  0  0  0  0  0  0  0  0
   -5.7690   -1.7890  -17.9590 C   0  0  0  0  0  0  0  0  0  0  0  0
   -5.7110   -1.2850  -19.4280 C   0  0  0  0  0  0  0  0  0  0  0  0
   -1.4570   -1.1950  -20.2710 C   0  0  0  0  0  0  0  0  0  0  0  0
   -1.6570   -2.6660  -17.5550 C   0  0  0  0  0  0  0  0  0  0  0  0
   -2.7580   -1.9640  -18.3230 C   0  0  1  0  0  0  0  0  0  0  0  0
   -3.6390   -1.3980  -17.1170 N   0  0  0  0  0  0  0  0  0  0  0  0
   -4.7080   -2.1480  -16.8070 C   0  0  0  0  0  0  0  0  0  0  0  0
   -9.2350   -3.0020  -16.0070 C   0  0  0  0  0  0  0  0  0  0  0  0
   -2.5060    0.4570  -18.9040 F   0  0  0  0  0  0  0  0  0  0  0  0
   -8.2020   -1.5180  -17.6490 N   0  0  0  0  0  0  0  0  0  0  0  0
   -7.0140   -2.0500  -17.3150 C   0  0  0  0  0  0  0  0  0  0  0  0
  3  8  1  0
  4 13  2  0
  5  1  1  0
  5  2  2  0
  7 11  1  0
  8 17  2  0
  9 12  1  1
  9 18  1  0
  9 14  1  0
 10 11  1  0
 10 20  1  0
 10 16  1  0
 13  6  1  0
 14 13  1  0
 14 15  1  1
 15 16  1  0
 16  1  2  0
 17  2  1  0
 19 20  2  0
 19  8  1  0
 20  5  1  0
M  END
$$$$

     RDKit          3D

 21 22  0  0  0  0  0  0  0  0999 V2000
   -1.2030   -1.5110  -20.2150 C   0  0  0  0  0  0  0  0  0  0  0  0
   -9.4580   -4.8730  -17.3760 O   0  0  0  0  0  0  0  0  0  0  0  0
   -3.4560   -2.5340  -17.4530 C   0  0  1  0  0  0  0  0  0  0  0  0
   -1.3000   -1.3930  -17.6820 N   0  0  0  0  0  0  0  0  0  0  0  0
    0.9220   -1.4830  -18.4020 C   0  0  0  0  0  0  0  0  0  0  0  0
   -9.8850   -1.0360  -17.3570 C   0  0  0  0  0  0  0  0  0  0  0  0
   -5.4800   -2.8430  -15.1750 O   0  0  0  0  0  0  0  0  0  0  0  0
   -9.0320   -3.4630  -17.3010 C   0  0  2  0  0  0  0  0  0  0  0  0
   -1.9360   -2.0870  -15.7580 C   0  0  0  0  0  0  0  0  0  0  0  0
   -6.9860   -2.2630  -17.0350 C   0  0  2  0  0  0  0  0  0  0  0  0
   -7.5100   -4.2340  -15.4530 O   0  0  0  0  0  0  0  0  0  0  0  0
   -3.5350   -3.8500  -17.0290 C   0  0  0  0  0  0  0  0  0  0  0  0
   -0.6410   -1.2590  -18.7390 C   0  0  1  0  0  0  0  0  0  0  0  0
   -7.9740   -3.1700  -16.2660 C   0  0  2  0  0  0  0  0  0  0  0  0
   -4.5910   -2.5090  -17.0690 N   0  0  0  0  0  0  0  0  0  0  0  0
   -5.5490   -2.6060  -16.2140 C   0  0  0  0  0  0  0  0  0  0  0  0
   -2.4750   -3.0420  -16.5000 C   0  0  1  0  0  0  0  0  0  0  0  0
   -8.5980   -0.3090  -17.7100 C   0  0  0  0  0  0  0  0  0  0  0  0
   -7.4450   -0.8630  -16.8550 C   0  0  0  0  0  0  0  0  0  0  0  0
   -1.2650   -0.8130  -16.5110 C   0  0  0  0  0  0  0  0  0  0  0  0
  -10.1710   -2.4400  -17.3200 C   0  0  0  0  0  0  0  0  0  0  0  0
 13  1  1  6
  3 15  1  1
  3 12  1  0
  3 17  1  0
  4 20  1  0
  6 21  1  0
  8  2  1  1
  8 14  1  0
 10 19  1  0
 10 14  1  0
 10 16  1  1
 12 17  1  0
 13  5  1  0
 13  4  1  0
 14 11  1  6
 15 16  1  0
 16  7  2  0
 17  9  1  1
 18  6  1  0
 18 19  1  0
 20  9  1  0
 21  8  1  0
M  END
$$$$

     RDKit          3D

 20 23  0  0  0  0  0  0  0  0999 V2000
   -4.7790   -2.4290  -16.8610 C   0  0  2  0  0  0  0  0  0  0  0  0
   -1.5120   -1.9990  -17.9920 C   0  0  2  0  0  0  0  0  0  0  0  0
   -7.4620   -1.4790  -17.7190 O   0  0  0  0  0  0  0  0  0  0  0  0
   -1.0370   -2.4480  -15.3280 S   0  0  0  0  0  0  0  0  0  0  0  0
   -2.4600   -0.3960  -19.6900 S   0  0  1  0  0  0  0  0  0  0  0  0
   -0.3750   -2.8470  -17.0100 C   0  0  0  0  0  0  0  0  0  0  0  0
   -7.5540   -4.0580  -15.2200 C   0  0  0  0  0  0  0  0  0  0  0  0
   -2.2790   -0.7190  -20.8680 O   0  0  0  0  0  0  0  0  0  0  0  0
   -6.7330   -2.9640  -15.6110 C   0  0  0  0  0  0  0  0  0  0  0  0
   -5.5650   -3.4830  -16.3790 O   0  0  0  0  0  0  0  0  0  0  0  0
   -2.7670   -2.8900  -15.2940 C   0  0  2  0  0  0  0  0  0  0  0  0
   -2.7260   -4.0160  -16.8650 C   0  0  0  0  0  0  0  0  0  0  0  0
   -4.9950   -1.7350  -18.2670 C   0  0  1  0  0  0  0  0  0  0  0  0
   -1.1010   -1.3870  -19.3280 C   0  0  0  0  0  0  0  0  0  0  0  0
   -6.3320   -1.6290  -18.5280 C   0  0  0  0  0  0  0  0  0  0  0  0
   -3.4680   -2.7990  -16.5900 C   0  0  1  0  0  0  0  0  0  0  0  0
   -2.8080   -1.5630  -17.4070 C   0  0  2  0  0  0  0  0  0  0  0  0
   -2.2920    0.9190  -19.4130 O   0  0  0  0  0  0  0  0  0  0  0  0
   -6.5370   -1.4190  -19.8100 N   0  0  0  0  0  0  0  0  0  0  0  0
   -3.9260   -0.9550  -18.5040 C   0  0  1  0  0  0  0  0  0  0  0  0
  1 16  1  0
  1 10  1  6
  2 14  1  1
 17  2  1  6
  2  6  1  0
  4 11  1  0
  5 18  2  0
  5 14  1  1
 20  5  1  6
  6  4  1  0
  8  5  2  0
  9  7  1  0
 10  9  1  0
 11 12  1  6
 13 15  1  1
 13  1  1  0
 15  3  2  0
 16 12  1  6
 16 11  1  0
 17 16  1  0
 19 15  1  0
 20 13  1  0
 20 17  1  0
M  END
$$$$

     RDKit          3D

 20 21  0  0  0  0  0  0  0  0999 V2000
   -6.1330   -2.1210  -17.1410 C   0  0  1  0  0  0  0  0  0  0  0  0
   -6.9370   -2.6180  -18.3240 C   0  0  0  0  0  0  0  0  0  0  0  0
   -1.0520   -2.9650  -17.3130 C   0  0  0  0  0  0  0  0  0  0  0  0
   -5.9760   -3.4580  -15.1740 O   0  0  0  0  0  0  0  0  0  0  0  0
   -6.7860   -2.9200  -15.8860 C   0  0  0  0  0  0  0  0  0  0  0  0
   -4.6920   -1.7430  -17.6250 C   0  0  0  0  0  0  0  0  0  0  0  0
   -3.1720   -0.4350  -19.0160 C   0  0  0  0  0  0  0  0  0  0  0  0
   -8.0310   -3.0800  -15.5520 O   0  0  0  0  0  0  0  0  0  0  0  0
   -2.2720   -2.1270  -17.5240 C   0  0  0  0  0  0  0  0  0  0  0  0
   -8.6660   -1.0000  -17.6590 C   0  0  0  0  0  0  0  0  0  0  0  0
   -3.6510   -2.9890  -15.9020 O   0  0  0  0  0  0  0  0  0  0  0  0
  -10.0760   -0.8390  -17.1720 C   0  0  0  0  0  0  0  0  0  0  0  0
   -6.4170   -3.1970  -19.2850 O   0  0  0  0  0  0  0  0  0  0  0  0
    0.3890   -1.1440  -17.8100 C   0  0  0  0  0  0  0  0  0  0  0  0
   -8.3110   -2.4080  -18.1460 O   0  0  0  0  0  0  0  0  0  0  0  0
    0.1400   -2.3100  -17.0750 C   0  0  0  0  0  0  0  0  0  0  0  0
   -0.6600   -0.6860  -18.6070 C   0  0  0  0  0  0  0  0  0  0  0  0
   -3.6210   -2.3420  -17.0130 C   0  0  0  0  0  0  0  0  0  0  0  0
   -4.4120   -0.8350  -18.6810 C   0  0  0  0  0  0  0  0  0  0  0  0
   -1.9840   -0.9970  -18.3570 C   0  0  0  0  0  0  0  0  0  0  0  0
  1  2  1  6
  1  5  1  0
  2 15  1  0
  3 16  2  0
  5  8  2  0
  5  4  1  0
  6  1  1  0
  6 18  1  0
  7 19  1  0
  7 20  2  0
  9  3  1  0
  9 18  2  0
 10 12  1  0
 13  2  2  0
 14 16  1  0
 15 10  1  0
 17 20  1  0
 17 14  2  0
 18 11  1  0
 19  6  2  0
 20  9  1  0
M  END
$$$$

     RDKit          3D

 21 22  0  0  0  0  0  0  0  0999 V2000
   -2.7800   -2.3270  -17.1850 C   0  0  0  0  0  0  0  0  0  0  0  0
   -3.1740   -0.0790  -17.6580 O   0  0  0  0  0  0  0  0  0  0  0  0
   -4.9570   -1.6370  -18.0300 C   0  0  0  0  0  0  0  0  0  0  0  0
   -1.8200   -1.8940  -18.1610 C   0  0  2  0  0  0  0  0  0  0  0  0
   -8.5220   -1.8300  -17.3990 C   0  0  0  0  0  0  0  0  0  0  0  0
   -9.4480   -1.1080  -17.7140 O   0  0  0  0  0  0  0  0  0  0  0  0
   -6.1130   -2.3180  -17.5660 C   0  0  0  0  0  0  0  0  0  0  0  0
   -7.4430   -3.3050  -15.7860 C   0  0  0  0  0  0  0  0  0  0  0  0
   -8.5160   -2.5980  -16.2690 N   0  0  0  0  0  0  0  0  0  0  0  0
   -6.1970   -2.9960  -16.3660 N   0  0  0  0  0  0  0  0  0  0  0  0
   -2.0580   -1.6990  -19.5540 O   0  0  0  0  0  0  0  0  0  0  0  0
   -0.1020   -2.9490  -16.4620 O   0  0  0  0  0  0  0  0  0  0  0  0
    0.2560   -2.8140  -19.2650 C   0  0  0  0  0  0  0  0  0  0  0  0
   -0.7560   -1.8630  -20.0100 C   0  0  2  0  0  0  0  0  0  0  0  0
   -3.0060   -3.3850  -16.5710 O   0  0  0  0  0  0  0  0  0  0  0  0
   -3.8610   -1.1440  -17.0040 C   0  0  1  0  0  0  0  0  0  0  0  0
   -7.3200   -1.5150  -19.5340 O   0  0  0  0  0  0  0  0  0  0  0  0
   -0.4360   -2.5610  -18.0090 C   0  0  1  0  0  0  0  0  0  0  0  0
   -0.1550   -0.5200  -20.0880 O   0  0  0  0  0  0  0  0  0  0  0  0
   -7.5640   -4.0980  -14.8560 O   0  0  0  0  0  0  0  0  0  0  0  0
   -7.2980   -1.9380  -18.1600 C   0  0  2  0  0  0  0  0  0  0  0  0
  1 16  1  0
  1 15  2  0
  3  7  1  0
  3 16  1  0
  4 18  1  0
  4  1  1  6
  5  9  1  0
  6  5  2  0
  7 10  2  0
  8 20  2  0
  9  8  1  0
 10  8  1  0
 11  4  1  0
 13 18  1  0
 14 19  1  1
 14 11  1  0
 14 13  1  0
 16  2  1  6
 18 12  1  6
 21 17  1  1
 21  7  1  0
 21  5  1  0
M  END
$$$$

     RDKit          3D

 22 23  0  0  0  0  0  0  0  0999 V2000
   -0.9950   -0.7300  -19.3380 C   0  0  0  0  0  0  0  0  0  0  0  0
   -9.2130   -0.9120  -17.6270 C   0  0  0  0  0  0  0  0  0  0  0  0
   -1.2850   -1.7290  -20.4200 O   0  0  0  0  0  0  0  0  0  0  0  0
   -6.8970   -1.8190  -17.3800 C   0  0  2  0  0  0  0  0  0  0  0  0
   -4.3920   -3.1750  -15.0160 C   0  0  0  0  0  0  0  0  0  0  0  0
   -5.2550   -3.0190  -16.1660 C   0  0  0  0  0  0  0  0  0  0  0  0
   -7.9840   -2.3490  -16.6150 C   0  0  0  0  0  0  0  0  0  0  0  0
   -6.1330   -0.8830  -19.7180 O   0  0  0  0  0  0  0  0  0  0  0  0
   -8.4410   -0.9970  -18.6990 N   0  0  0  0  0  0  0  0  0  0  0  0
   -2.1150   -0.5670  -18.4340 C   0  0  1  0  0  0  0  0  0  0  0  0
   -2.0310    0.1490  -17.3580 F   0  0  0  0  0  0  0  0  0  0  0  0
   -6.9430   -1.7780  -18.9700 S   0  0  2  0  0  0  0  0  0  0  0  0
   -7.0560   -3.1700  -19.4400 O   0  0  0  0  0  0  0  0  0  0  0  0
   -5.2170   -2.0810  -17.1370 C   0  0  0  0  0  0  0  0  0  0  0  0
   -7.9810   -3.3970  -15.8970 O   0  0  0  0  0  0  0  0  0  0  0  0
   -3.3910   -1.0710  -18.7610 C   0  0  0  0  0  0  0  0  0  0  0  0
   -2.7120   -2.1760  -16.4040 C   0  0  0  0  0  0  0  0  0  0  0  0
   -3.6830   -1.8240  -17.4280 C   0  0  1  0  0  0  0  0  0  0  0  0
   -3.2150   -2.6800  -15.2690 C   0  0  0  0  0  0  0  0  0  0  0  0
  -10.4890   -0.0780  -17.4000 C   0  0  0  0  0  0  0  0  0  0  0  0
   -9.1450   -1.6570  -16.6030 O   0  0  0  0  0  0  0  0  0  0  0  0
   -1.4770   -2.3050  -16.4080 O   0  0  0  0  0  0  0  0  0  0  0  0
  1 10  1  0
  2 20  1  0
  2 21  1  0
  3  1  1  0
  4 14  1  6
  4  7  1  0
  6  5  1  0
  7 21  1  0
  7 15  2  0
  8 12  2  0
  9  2  2  0
 10 11  1  6
 12  9  1  1
 12  4  1  0
 13 12  2  0
 14  6  1  0
 16 10  1  0
 17 19  1  0
 18 16  1  1
 18 14  1  0
 18 17  1  0
 19  5  1  0
 22 17  2  0
M  END
$$$$

     RDKit          3D

 21 21  0  0  0  0  0  0  0  0999 V2000
   -2.8280   -1.6860  -18.5980 O   0  0  0  0  0  0  0  0  0  0  0  0
   -7.1320   -1.5790  -18.6950 C   0  0  0  0  0  0  0  0  0  0  0  0
   -8.4200   -2.5190  -17.1990 C   0  0  0  0  0  0  0  0  0  0  0  0
   -0.2170   -1.4010  -17.7890 O   0  0  0  0  0  0  0  0  0  0  0  0
   -9.4540   -2.9860  -16.5460 O   0  0  0  0  0  0  0  0  0  0  0  0
   -3.0710   -1.9760  -16.3510 C   0  0  2  0  0  0  0  0  0  0  0  0
   -8.4280   -1.8540  -18.3480 N   0  0  0  0  0  0  0  0  0  0  0  0
   -2.7470   -4.2920  -16.8210 O   0  0  0  0  0  0  0  0  0  0  0  0
   -2.0440    0.1960  -17.2390 C   0  0  0  0  0  0  0  0  0  0  0  0
   -7.0230   -3.2130  -15.4520 C   0  0  0  0  0  0  0  0  0  0  0  0
   -4.9410   -2.3010  -18.0630 C   0  0  0  0  0  0  0  0  0  0  0  0
   -3.7010   -1.8610  -17.7180 C   0  0  0  0  0  0  0  0  0  0  0  0
   -2.3030   -0.8640  -16.3180 C   0  0  0  0  0  0  0  0  0  0  0  0
   -6.2770   -2.0760  -17.8110 C   0  0  2  0  0  0  0  0  0  0  0  0
   -5.7610   -3.4380  -14.9340 O   0  0  0  0  0  0  0  0  0  0  0  0
   -2.5780   -3.4840  -15.9140 C   0  0  0  0  0  0  0  0  0  0  0  0
   -1.2970   -0.5880  -18.3450 C   0  0  1  0  0  0  0  0  0  0  0  0
   -1.0230   -0.3680  -19.8550 C   0  0  0  0  0  0  0  0  0  0  0  0
   -2.2690   -3.5720  -14.7100 O   0  0  0  0  0  0  0  0  0  0  0  0
   -6.8770   -1.0440  -19.7500 O   0  0  0  0  0  0  0  0  0  0  0  0
   -7.1970   -2.7070  -16.7090 C   0  0  0  0  0  0  0  0  0  0  0  0
  1 12  2  0
  2  7  1  0
  2 14  1  0
  3 21  1  0
  3  5  2  0
  6 13  1  6
  6 16  1  0
  7  3  1  0
  8 16  2  0
  9 13  1  0
 10 15  1  0
 11 12  1  0
 12  6  1  0
 14 11  1  6
 14 21  1  0
 16 19  1  0
 17 18  1  6
 17  4  1  0
 17  9  1  0
 20  2  2  0
 21 10  2  3
M  END
$$$$

     RDKit          3D

 23 26  0  0  0  0  0  0  0  0999 V2000
   -3.5690   -0.8620  -16.9000 C   0  0  1  0  0  0  0  0  0  0  0  0
   -2.6740   -1.4800  -15.9240 C   0  0  0  0  0  0  0  0  0  0  0  0
   -5.7390   -2.0180  -16.3400 C   0  0  0  0  0  0  0  0  0  0  0  0
   -7.1300   -3.5340  -15.5440 N   0  0  0  0  0  0  0  0  0  0  0  0
   -0.5960   -1.4570  -20.2700 C   0  0  0  0  0  0  0  0  0  0  0  0
   -6.8000   -2.6280  -16.4350 C   0  0  0  0  0  0  0  0  0  0  0  0
  -10.0870   -2.1090  -17.7020 O   0  0  0  0  0  0  0  0  0  0  0  0
   -9.1780   -3.7100  -16.3590 N   0  0  0  0  0  0  0  0  0  0  0  0
   -7.1770   -2.9160  -19.6980 N   0  0  0  0  0  0  0  0  0  0  0  0
   -1.8110   -0.7010  -18.3150 C   0  0  2  0  0  0  0  0  0  0  0  0
   -1.0380   -0.2300  -19.4860 C   0  0  0  0  0  0  0  0  0  0  0  0
   -1.5080   -1.9030  -17.6560 C   0  0  1  0  0  0  0  0  0  0  0  0
   -4.5670   -2.3590  -18.3750 O   0  0  0  0  0  0  0  0  0  0  0  0
   -2.1310   -2.6520  -16.4890 C   0  0  0  0  0  0  0  0  0  0  0  0
   -0.7460   -3.0460  -18.3110 C   0  0  0  0  0  0  0  0  0  0  0  0
   -9.0650   -2.6170  -17.1720 C   0  0  0  0  0  0  0  0  0  0  0  0
   -6.9650   -1.7870  -18.8850 C   0  0  1  0  0  0  0  0  0  0  0  0
   -7.8490   -2.2020  -17.5570 C   0  0  2  0  0  0  0  0  0  0  0  0
   -5.4470   -1.6110  -18.9290 C   0  0  0  0  0  0  0  0  0  0  0  0
   -3.1810   -0.4040  -18.2070 O   0  0  0  0  0  0  0  0  0  0  0  0
   -4.4890   -1.9110  -17.1040 C   0  0  1  0  0  0  0  0  0  0  0  0
   -0.0810   -2.6820  -19.5770 C   0  0  0  0  0  0  0  0  0  0  0  0
   -8.3890   -4.0400  -15.3960 C   0  0  0  0  0  0  0  0  0  0  0  0
  1  2  1  6
  4 23  1  0
  5 22  1  0
  5 11  1  0
  6  3  1  0
  6  4  2  0
  7 16  2  0
  8 23  1  0
 10 11  1  6
 10 20  1  0
 10 12  1  0
 12 15  1  6
 12 14  1  0
 13 21  1  0
 14  2  1  0
 16  8  1  0
 17  9  1  6
 17 18  1  0
 18 16  1  6
 18  6  1  0
 19 17  1  0
 19 13  1  0
 20  1  1  0
 21  1  1  0
 21  3  1  6
 22 15  1  0
M  END
$$$$

     RDKit          3D

 20 21  0  0  0  0  0  0  0  0999 V2000
   -9.6220   -2.2550  -17.9780 O   0  0  0  0  0  0  0  0  0  0  0  0
   -3.7370   -3.1860  -16.3360 C   0  0  1  0  0  0  0  0  0  0  0  0
   -1.4870    0.4290  -19.6100 C   0  0  0  0  0  0  0  0  0  0  0  0
   -7.5480   -1.1060  -18.0240 O   0  0  0  0  0  0  0  0  0  0  0  0
   -2.7240   -1.8880  -15.8610 C   0  0  0  0  0  0  0  0  0  0  0  0
   -2.9510   -1.7610  -18.2020 C   0  0  0  0  0  0  0  0  0  0  0  0
   -2.0490   -0.6110  -20.2630 C   0  0  0  0  0  0  0  0  0  0  0  0
   -6.7590   -3.4130  -15.0430 O   0  0  0  0  0  0  0  0  0  0  0  0
   -1.5380    0.7950  -18.2200 C   0  0  0  0  0  0  0  0  0  0  0  0
   -5.1580   -2.9090  -16.2620 C   0  0  0  0  0  0  0  0  0  0  0  0
   -3.3380   -3.3400  -17.7130 C   0  0  0  0  0  0  0  0  0  0  0  0
   -2.7910   -1.6210  -19.4230 C   0  0  0  0  0  0  0  0  0  0  0  0
   -8.1550   -2.3270  -17.8850 S   0  0  1  0  0  0  0  0  0  0  0  0
   -1.7720    0.1420  -17.1590 C   0  0  0  0  0  0  0  0  0  0  0  0
   -8.7040   -4.1360  -16.3770 O   0  0  0  0  0  0  0  0  0  0  0  0
   -2.4260   -1.1200  -17.0980 C   0  0  0  0  0  0  0  0  0  0  0  0
   -8.3040   -3.1400  -16.5680 C   0  0  0  0  0  0  0  0  0  0  0  0
   -7.6410   -2.5330  -15.5340 C   0  0  0  0  0  0  0  0  0  0  0  0
   -7.5180   -3.1800  -18.8140 O   0  0  0  0  0  0  0  0  0  0  0  0
   -6.1700   -3.8020  -15.6860 C   0  0  0  0  0  0  0  0  0  0  0  0
 13  1  1  6
  2 10  1  6
  2  5  1  0
  3  9  1  0
  4 13  1  0
  6 11  1  0
  6 16  1  0
  7  3  2  0
  7 12  1  0
  9 14  1  0
 10 20  1  0
 11  2  1  0
 12  6  2  0
 13 17  1  0
 14 16  2  0
 16  5  1  0
 17 15  2  0
 17 18  1  0
 18  8  1  0
 19 13  1  0
 20  8  1  0
M  END
$$$$

     RDKit          3D

 22 25  0  0  0  0  0  0  0  0999 V2000
   -0.7210   -3.2680  -18.2410 C   0  0  0  0  0  0  0  0  0  0  0  0
   -9.4670   -0.6540  -17.1390 N   0  0  0  0  0  0  0  0  0  0  0  0
   -8.7080   -4.0800  -18.1270 C   0  0  0  0  0  0  0  0  0  0  0  0
   -8.2590   -3.5490  -15.8690 C   0  0  0  0  0  0  0  0  0  0  0  0
   -6.4760   -3.3470  -15.4190 O   0  0  0  0  0  0  0  0  0  0  0  0
   -9.0980   -1.7270  -17.3880 C   0  0  0  0  0  0  0  0  0  0  0  0
   -1.1380    0.3740  -19.5270 C   0  0  0  0  0  0  0  0  0  0  0  0
   -1.7460   -4.2160  -17.6860 N   0  0  0  0  0  0  0  0  0  0  0  0
   -4.8340   -2.1240  -16.7440 C   0  0  1  0  0  0  0  0  0  0  0  0
   -8.3430   -2.9620  -17.1690 C   0  0  2  0  0  0  0  0  0  0  0  0
   -7.0480   -1.9310  -19.3840 O   0  0  0  0  0  0  0  0  0  0  0  0
   -3.5440   -2.6790  -17.6190 C   0  0  2  0  0  0  0  0  0  0  0  0
   -1.0800   -1.1730  -19.6840 C   0  0  0  0  0  0  0  0  0  0  0  0
   -1.2440   -1.7760  -18.3010 C   0  0  1  0  0  0  0  0  0  0  0  0
   -6.9910   -2.6900  -17.2340 N   0  0  0  0  0  0  0  0  0  0  0  0
   -2.7470   -3.6940  -16.7370 C   0  0  0  0  0  0  0  0  0  0  0  0
   -2.7110   -1.5900  -18.1410 C   0  0  2  0  0  0  0  0  0  0  0  0
   -5.3880   -1.5670  -17.8990 N   0  0  0  0  0  0  0  0  0  0  0  0
   -6.5120   -2.1180  -18.3200 C   0  0  0  0  0  0  0  0  0  0  0  0
   -1.7750    0.7700  -18.1750 C   0  0  0  0  0  0  0  0  0  0  0  0
   -6.0880   -2.7630  -16.2840 C   0  0  1  0  0  0  0  0  0  0  0  0
   -2.9230   -0.1200  -17.8150 C   0  0  0  0  0  0  0  0  0  0  0  0
  1  8  1  0
  4  5  1  0
  6 10  1  0
  6  2  3  0
  7 20  1  0
  8 16  1  0
  9 18  1  6
  9 21  1  0
 10  3  1  6
 10  4  1  0
 11 19  2  0
 12  9  1  0
 12 16  1  1
 13  7  1  0
 14 13  1  6
 14  1  1  0
 14 17  1  0
 15 10  1  0
 15 21  1  0
 17 22  1  1
 17 12  1  0
 19 18  1  0
 19 15  1  0
 20 22  1  0
 21  5  1  6
M  END
$$$$

     RDKit          3D

 21 23  0  0  0  0  0  0  0  0999 V2000
   -8.1980   -3.5270  -15.2530 C   0  0  0  0  0  0  0  0  0  0  0  0
   -1.1210   -2.6710  -15.3240 C   0  0  0  0  0  0  0  0  0  0  0  0
   -2.7430   -0.5400  -18.1970 C   0  0  0  0  0  0  0  0  0  0  0  0
   -8.6830   -1.2830  -18.0660 N   0  0  0  0  0  0  0  0  0  0  0  0
   -5.9330   -1.2270  -19.6460 F   0  0  0  0  0  0  0  0  0  0  0  0
   -4.4780   -1.6800  -17.1440 C   0  0  1  0  0  0  0  0  0  0  0  0
   -5.9430   -1.6950  -18.6930 C   0  0  0  0  0  0  0  0  0  0  0  0
   -8.7920   -2.6160  -16.0440 O   0  0  0  0  0  0  0  0  0  0  0  0
   -0.6370   -3.1180  -17.9080 C   0  0  0  0  0  0  0  0  0  0  0  0
   -2.9950   -2.6960  -17.0740 C   0  0  2  0  0  0  0  0  0  0  0  0
   -4.1240   -3.2040  -16.2530 S   0  0  0  0  0  0  0  0  0  0  0  0
   -7.0010   -3.5420  -15.5110 N   0  0  0  0  0  0  0  0  0  0  0  0
   -1.5390   -0.8770  -18.8360 C   0  0  1  0  0  0  0  0  0  0  0  0
   -1.6910   -3.0570  -16.7600 C   0  0  2  0  0  0  0  0  0  0  0  0
   -0.8150   -1.8540  -18.3910 C   0  0  0  0  0  0  0  0  0  0  0  0
   -1.0070   -0.2120  -20.1000 C   0  0  0  0  0  0  0  0  0  0  0  0
   -0.4510   -1.2850  -20.9710 O   0  0  0  0  0  0  0  0  0  0  0  0
   -7.9980   -2.0590  -16.9250 C   0  0  0  0  0  0  0  0  0  0  0  0
   -6.7850   -2.5270  -16.5250 C   0  0  0  0  0  0  0  0  0  0  0  0
   -3.5870   -1.5650  -17.4580 C   0  0  0  0  0  0  0  0  0  0  0  0
   -5.6470   -2.0890  -17.3100 C   0  0  2  0  0  0  0  0  0  0  0  0
  4 18  1  0
  5  7  1  0
  6 21  1  0
  6 11  1  1
  8  1  1  0
  9 14  1  0
 10 14  1  0
 10 11  1  1
 12  1  2  0
 13 16  1  6
 13 15  1  0
 13  3  1  0
 14  2  1  1
 15  9  1  0
 17 16  1  0
 18 19  2  0
 18  8  1  0
 19 12  1  0
 20  3  1  0
 20  6  1  0
 20 10  1  0
 21  7  1  1
 21 19  1  0
M  END
$$$$

     RDKit          3D

 21 23  0  0  0  0  0  0  0  0999 V2000
   -3.4530   -0.8680  -17.1370 C   0  0  1  0  0  0  0  0  0  0  0  0
   -9.2020   -2.5840  -18.3610 O   0  0  0  0  0  0  0  0  0  0  0  0
   -7.1620   -3.2340  -15.3300 C   0  0  2  0  0  0  0  0  0  0  0  0
   -1.7920   -0.5170  -19.0400 C   0  0  0  0  0  0  0  0  0  0  0  0
   -5.8450   -1.9140  -17.0700 C   0  0  2  0  0  0  0  0  0  0  0  0
   -6.5830   -1.4820  -19.2700 C   0  0  0  0  0  0  0  0  0  0  0  0
   -7.3650   -4.3850  -14.5590 O   0  0  0  0  0  0  0  0  0  0  0  0
   -2.3700   -2.3050  -15.5850 C   0  0  0  0  0  0  0  0  0  0  0  0
   -7.3090   -1.2060  -20.1490 O   0  0  0  0  0  0  0  0  0  0  0  0
   -8.3960   -3.3490  -16.2220 C   0  0  0  0  0  0  0  0  0  0  0  0
   -3.3340   -1.8320  -15.9830 C   0  0  0  0  0  0  0  0  0  0  0  0
   -1.0700   -2.5570  -15.7020 O   0  0  0  0  0  0  0  0  0  0  0  0
   -5.2730   -1.2130  -19.2630 N   0  0  0  0  0  0  0  0  0  0  0  0
   -6.9370   -2.0780  -18.0960 C   0  0  2  0  0  0  0  0  0  0  0  0
   -8.2560   -2.7260  -17.6160 C   0  0  0  0  0  0  0  0  0  0  0  0
   -2.3080    0.7800  -19.3730 O   0  0  0  0  0  0  0  0  0  0  0  0
   -2.1690   -1.3340  -18.0280 C   0  0  0  0  0  0  0  0  0  0  0  0
   -0.6440   -2.9550  -17.0570 C   0  0  0  0  0  0  0  0  0  0  0  0
   -4.7600   -1.2560  -17.8770 C   0  0  2  0  0  0  0  0  0  0  0  0
   -1.8340   -2.5790  -17.9400 C   0  0  0  0  0  0  0  0  0  0  0  0
   -5.7730   -3.0860  -16.0620 C   0  0  0  0  0  0  0  0  0  0  0  0
  1 11  1  1
  2 15  2  0
  3  7  1  6
  4 17  2  3
  5 21  1  6
  6 13  1  0
  9  6  2  0
 10  3  1  0
 11  8  2  0
 12  8  1  0
 14  6  1  1
 14 15  1  0
 14  5  1  0
 15 10  1  0
 16  4  1  0
 17 20  1  0
 17  1  1  0
 18 12  1  0
 19 13  1  6
 19  1  1  0
 19  5  1  0
 20 18  1  0
 21  3  1  0
M  END
$$$$

     RDKit          3D

 20 22  0  0  0  0  0  0  0  0999 V2000
   -1.4240   -1.8020  -15.6390 C   0  0  0  0  0  0  0  0  0  0  0  0
   -1.1630   -3.1880  -17.5360 C   0  0  0  0  0  0  0  0  0  0  0  0
   -9.8380   -3.9000  -17.5550 C   0  0  0  0  0  0  0  0  0  0  0  0
   -5.7870   -1.9430  -17.6690 C   0  0  0  0  0  0  0  0  0  0  0  0
   -9.2180   -4.2160  -16.2720 O   0  0  0  0  0  0  0  0  0  0  0  0
   -5.9170   -2.5990  -16.4380 C   0  0  0  0  0  0  0  0  0  0  0  0
   -9.1800   -2.6760  -17.0300 C   0  0  1  0  0  0  0  0  0  0  0  0
   -7.0570   -2.9710  -16.1330 N   0  0  0  0  0  0  0  0  0  0  0  0
   -6.9950   -0.6610  -20.3470 O   0  0  0  0  0  0  0  0  0  0  0  0
   -3.4080   -1.4050  -17.1030 C   0  0  1  0  0  0  0  0  0  0  0  0
   -7.0590   -1.9210  -19.5220 C   0  0  0  0  0  0  0  0  0  0  0  0
   -7.7860   -2.5380  -17.2360 C   0  0  0  0  0  0  0  0  0  0  0  0
   -2.2350   -0.7130  -17.4740 C   0  0  0  0  0  0  0  0  0  0  0  0
    0.1320   -2.9390  -17.1830 O   0  0  0  0  0  0  0  0  0  0  0  0
   -4.2650   -1.2420  -19.2930 O   0  0  0  0  0  0  0  0  0  0  0  0
   -1.1160   -0.7500  -16.6400 C   0  0  0  0  0  0  0  0  0  0  0  0
   -4.5120   -1.3780  -18.1510 C   0  0  0  0  0  0  0  0  0  0  0  0
   -7.0030   -2.0490  -18.1950 C   0  0  0  0  0  0  0  0  0  0  0  0
   -3.0930   -2.9740  -16.9810 C   0  0  0  0  0  0  0  0  0  0  0  0
   -1.9200   -3.0260  -16.2210 C   0  0  2  0  0  0  0  0  0  0  0  0
  2 14  1  0
  3  7  1  0
  3  5  1  0
  4  6  1  0
  6  8  1  0
  7 12  1  6
  7  5  1  0
  9 11  1  0
 10 17  1  6
 10 19  1  0
 11 18  1  0
 12  8  2  0
 13 10  1  0
 13 16  1  0
 15 17  2  0
 16  1  1  0
 17  4  1  0
 18  4  2  0
 18 12  1  0
 19 20  1  0
 20  2  1  6
 20  1  1  0
M  END
$$$$

     RDKit          3D

 20 22  0  0  0  0  0  0  0  0999 V2000
   -5.0100   -1.3030  -18.6220 C   0  0  0  0  0  0  0  0  0  0  0  0
   -5.8000   -2.3940  -16.6260 C   0  0  0  0  0  0  0  0  0  0  0  0
   -6.7620   -3.7210  -15.1130 N   0  0  0  0  0  0  0  0  0  0  0  0
   -2.4820   -2.9990  -17.3890 C   0  0  0  0  0  0  0  0  0  0  0  0
   -0.1020   -0.1650  -18.0740 C   0  0  0  0  0  0  0  0  0  0  0  0
   -3.3020   -1.9490  -17.1620 C   0  0  2  0  0  0  0  0  0  0  0  0
   -6.1550   -1.1500  -19.2210 C   0  0  0  0  0  0  0  0  0  0  0  0
   -0.8870   -1.3530  -17.4720 C   0  0  2  0  0  0  0  0  0  0  0  0
   -4.6900   -1.7890  -17.3550 C   0  0  1  0  0  0  0  0  0  0  0  0
   -8.8850   -4.0250  -15.9480 O   0  0  0  0  0  0  0  0  0  0  0  0
   -7.1930   -2.5280  -16.9630 C   0  0  0  0  0  0  0  0  0  0  0  0
   -2.7520    0.3560  -17.1200 O   0  0  0  0  0  0  0  0  0  0  0  0
    0.0030   -2.0920  -16.4810 C   0  0  0  0  0  0  0  0  0  0  0  0
   -8.0850   -1.8420  -17.9440 C   0  0  0  0  0  0  0  0  0  0  0  0
   -5.6250   -3.0810  -15.5210 N   0  0  0  0  0  0  0  0  0  0  0  0
   -7.5410   -1.2840  -19.0230 C   0  0  0  0  0  0  0  0  0  0  0  0
   -7.7050   -3.4020  -16.0260 N   0  0  0  0  0  0  0  0  0  0  0  0
   -1.4570   -2.3640  -18.4090 C   0  0  1  0  0  0  0  0  0  0  0  0
   -0.4490   -2.9410  -19.2220 O   0  0  0  0  0  0  0  0  0  0  0  0
   -2.3390   -0.8380  -17.1620 C   0  0  0  0  0  0  0  0  0  0  0  0
  2 15  1  0
  8  5  1  6
  6  4  1  6
  7 16  1  0
  7  1  2  0
  8 20  1  0
  8 13  1  0
  9  1  1  6
  9  6  1  0
  9  2  1  0
 11  2  2  0
 11 17  1  0
 14 11  1  0
 15  3  2  0
 16 14  2  0
 17 10  1  0
 17  3  1  0
 18 19  1  1
 18  8  1  0
 18  4  1  0
 20  6  1  0
 20 12  2  0
M  END
$$$$

     RDKit          3D

 20 22  0  0  0  0  0  0  0  0999 V2000
   -3.9900   -3.0490  -15.2100 O   0  0  0  0  0  0  0  0  0  0  0  0
   -5.2660   -1.4380  -18.6840 C   0  0  0  0  0  0  0  0  0  0  0  0
   -0.9740   -2.1830  -19.9260 C   0  0  0  0  0  0  0  0  0  0  0  0
   -6.5560   -2.3790  -16.8800 C   0  0  0  0  0  0  0  0  0  0  0  0
   -5.1880   -2.0770  -17.3990 C   0  0  1  0  0  0  0  0  0  0  0  0
   -8.8580   -2.3340  -17.4100 C   0  0  0  0  0  0  0  0  0  0  0  0
   -0.8400   -1.3590  -17.6140 C   0  0  0  0  0  0  0  0  0  0  0  0
   -1.5010   -1.4490  -16.3040 C   0  0  0  0  0  0  0  0  0  0  0  0
   -8.7030   -2.7770  -16.1250 C   0  0  0  0  0  0  0  0  0  0  0  0
   -3.5180   -3.7830  -17.4430 O   0  0  0  0  0  0  0  0  0  0  0  0
   -4.1040   -0.8870  -19.4090 C   0  0  0  0  0  0  0  0  0  0  0  0
   -2.9460   -1.3630  -16.5580 N   0  0  0  0  0  0  0  0  0  0  0  0
   -6.7620   -1.5290  -19.1050 C   0  0  0  0  0  0  0  0  0  0  0  0
   -2.8070   -0.9870  -19.0220 N   0  0  0  0  0  0  0  0  0  0  0  0
   -7.4900   -2.0790  -17.8760 N   0  0  0  0  0  0  0  0  0  0  0  0
   -1.6040   -1.4140  -18.8290 C   0  0  2  0  0  0  0  0  0  0  0  0
   -4.2970   -0.1490  -20.6610 C   0  0  0  0  0  0  0  0  0  0  0  0
   -7.3050   -2.8280  -15.8040 C   0  0  0  0  0  0  0  0  0  0  0  0
   -7.3230   -1.2490  -20.1080 O   0  0  0  0  0  0  0  0  0  0  0  0
   -3.8620   -2.6650  -16.5960 S   0  0  2  0  0  0  0  0  0  0  0  0
  4 18  2  0
  5  2  1  0
  5  4  1  6
  5 20  1  0
  6  9  2  0
  7  8  1  0
  9 18  1  0
 10 20  2  0
 11 14  1  0
 11  2  2  3
 12  8  1  0
 13  2  1  0
 13 15  1  0
 14 16  1  0
 15  6  1  0
 15  4  1  0
 16  3  1  1
 16  7  1  0
 17 11  1  0
 19 13  2  0
 20 12  1  1
 20  1  2  0
M  END
$$$$
