
     RDKit          3D

 21 23  0  0  0  0  0  0  0  0999 V2000
   -6.6070   -1.7770  -17.8960 C   0  0  0  0  0  0  0  0  0  0  0  0
   -2.8560   -1.9190  -17.4840 C   0  0  0  0  0  0  0  0  0  0  0  0
   -7.8270   -3.1370  -14.9570 O   0  0  0  0  0  0  0  0  0  0  0  0
   -4.1140   -1.5750  -18.0010 C   0  0  0  0  0  0  0  0  0  0  0  0
    0.6920   -0.8720  -18.1490 C   0  0  0  0  0  0  0  0  0  0  0  0
   -3.1320   -0.1360  -19.6370 C   0  0  0  0  0  0  0  0  0  0  0  0
   -1.7340   -1.1970  -17.9400 C   0  0  0  0  0  0  0  0  0  0  0  0
   -2.5500   -4.3880  -16.9920 C   0  0  0  0  0  0  0  0  0  0  0  0
   -7.1180   -2.7250  -15.9270 C   0  0  0  0  0  0  0  0  0  0  0  0
   -2.3670   -2.8790  -15.0970 C   0  0  0  0  0  0  0  0  0  0  0  0
   -9.0340   -2.0060  -17.3920 C   0  0  0  0  0  0  0  0  0  0  0  0
   -5.5000   -2.7740  -15.8420 S   0  0  0  0  0  0  0  0  0  0  0  0
   -4.1620   -0.7390  -19.1300 N   0  0  0  0  0  0  0  0  0  0  0  0
    0.4080    0.5030  -18.6060 C   0  0  0  0  0  0  0  0  0  0  0  0
   -7.6500   -2.1290  -17.0450 N   0  0  0  0  0  0  0  0  0  0  0  0
   -2.6280   -3.0120  -16.5810 C   0  0  1  0  0  0  0  0  0  0  0  0
   -6.8700   -1.2490  -19.2880 C   0  0  0  0  0  0  0  0  0  0  0  0
   -0.3810   -1.3180  -17.2890 C   0  0  0  0  0  0  0  0  0  0  0  0
   -0.7560    0.5520  -19.5900 C   0  0  0  0  0  0  0  0  0  0  0  0
   -1.8450   -0.2800  -18.9770 C   0  0  0  0  0  0  0  0  0  0  0  0
   -5.3490   -2.0190  -17.3920 C   0  0  0  0  0  0  0  0  0  0  0  0
  1 21  2  0
  1 15  1  0
  2 16  1  0
  4  2  2  0
  4 21  1  0
  5 18  1  0
  6 13  2  0
  6 20  1  0
  7  2  1  0
  7 18  1  0
 16  8  1  6
  9 12  1  0
  9  3  2  0
 11 15  1  0
 13  4  1  0
 14  5  1  0
 15  9  1  0
 16 10  1  0
 17  1  1  0
 19 20  1  0
 19 14  1  0
 20  7  2  0
 21 12  1  0
M  END
$$$$

     RDKit          3D

 21 23  0  0  0  0  0  0  0  0999 V2000
   -6.6230   -1.7410  -18.0430 C   0  0  0  0  0  0  0  0  0  0  0  0
   -2.6590   -1.7050  -17.3630 C   0  0  0  0  0  0  0  0  0  0  0  0
   -7.4240   -3.2380  -15.0880 O   0  0  0  0  0  0  0  0  0  0  0  0
   -3.9300   -1.3950  -18.0290 C   0  0  0  0  0  0  0  0  0  0  0  0
    1.0050   -0.5390  -17.7800 C   0  0  0  0  0  0  0  0  0  0  0  0
   -2.7270   -0.1230  -19.6630 C   0  0  0  0  0  0  0  0  0  0  0  0
   -1.4650   -1.1150  -17.8510 C   0  0  0  0  0  0  0  0  0  0  0  0
   -2.4750   -4.1670  -16.6790 C   0  0  0  0  0  0  0  0  0  0  0  0
   -6.8450   -2.6470  -16.0420 C   0  0  0  0  0  0  0  0  0  0  0  0
   -2.4370   -2.5740  -14.7980 C   0  0  0  0  0  0  0  0  0  0  0  0
   -8.9750   -2.0840  -17.2110 C   0  0  0  0  0  0  0  0  0  0  0  0
   -5.5330   -2.3770  -16.2010 N   0  0  0  0  0  0  0  0  0  0  0  0
   -3.8210   -0.6590  -19.2190 C   0  0  0  0  0  0  0  0  0  0  0  0
    0.7970    0.1530  -19.0680 C   0  0  0  0  0  0  0  0  0  0  0  0
   -7.5520   -2.1700  -17.0740 N   0  0  0  0  0  0  0  0  0  0  0  0
   -2.6250   -2.7960  -16.2640 N   0  0  0  0  0  0  0  0  0  0  0  0
   -6.9100   -1.3220  -19.2080 O   0  0  0  0  0  0  0  0  0  0  0  0
   -0.1330   -1.1900  -17.2380 C   0  0  0  0  0  0  0  0  0  0  0  0
   -0.4670    0.4990  -19.4550 C   0  0  0  0  0  0  0  0  0  0  0  0
   -1.4880   -0.3830  -19.0270 C   0  0  0  0  0  0  0  0  0  0  0  0
   -5.2400   -1.7960  -17.4350 C   0  0  0  0  0  0  0  0  0  0  0  0
  1 21  1  0
  1 15  1  0
  2 16  1  0
  4 21  1  0
  4  2  2  0
  5 18  1  0
  6 13  2  0
  6 20  1  0
  7  2  1  0
  7 18  2  0
  8 16  1  0
  9  3  2  0
 11 15  1  0
 12  9  1  0
 13  4  1  0
 14  5  2  0
 15  9  1  0
 16 10  1  0
 17  1  2  0
 19 14  1  0
 19 20  2  0
 20  7  1  0
 21 12  2  0
M  END
$$$$

     RDKit          3D

 21 23  0  0  0  0  0  0  0  0999 V2000
   -6.7120   -1.7020  -18.1470 C   0  0  0  0  0  0  0  0  0  0  0  0
   -2.7170   -1.7600  -17.1240 C   0  0  2  0  0  0  0  0  0  0  0  0
   -7.3700   -3.1720  -14.9150 C   0  0  0  0  0  0  0  0  0  0  0  0
   -3.9160   -1.3560  -17.8750 C   0  0  0  0  0  0  0  0  0  0  0  0
    0.8600   -0.6650  -17.5250 C   0  0  0  0  0  0  0  0  0  0  0  0
   -2.7660   -0.3500  -19.6170 N   0  0  0  0  0  0  0  0  0  0  0  0
   -1.4500   -1.2920  -17.6250 C   0  0  1  0  0  0  0  0  0  0  0  0
   -2.9940   -3.8990  -16.3020 O   0  0  0  0  0  0  0  0  0  0  0  0
   -6.9030   -2.6420  -16.2010 C   0  0  0  0  0  0  0  0  0  0  0  0
   -2.7320   -2.2440  -14.5490 C   0  0  0  0  0  0  0  0  0  0  0  0
   -9.0420   -2.2470  -17.5490 C   0  0  0  0  0  0  0  0  0  0  0  0
   -5.5410   -2.1810  -16.2840 N   0  0  0  0  0  0  0  0  0  0  0  0
   -3.8050   -0.8030  -19.1120 C   0  0  0  0  0  0  0  0  0  0  0  0
    0.2330    0.5680  -18.3200 C   0  0  0  0  0  0  0  0  0  0  0  0
   -7.4900   -2.2130  -17.2950 N   0  0  0  0  0  0  0  0  0  0  0  0
   -2.7570   -2.6240  -16.0390 C   0  0  2  0  0  0  0  0  0  0  0  0
   -6.9410   -1.3500  -19.2860 O   0  0  0  0  0  0  0  0  0  0  0  0
   -0.2080   -1.4620  -16.8790 C   0  0  0  0  0  0  0  0  0  0  0  0
   -0.6960    0.2950  -19.1620 C   0  0  0  0  0  0  0  0  0  0  0  0
   -1.5690   -0.8560  -18.9590 C   0  0  2  0  0  0  0  0  0  0  0  0
   -5.3610   -1.6910  -17.5410 C   0  0  0  0  0  0  0  0  0  0  0  0
  1 21  1  0
  1 15  1  0
  2 16  1  0
  2  4  1  6
  5 18  1  0
  6 13  1  0
  6 20  1  0
  7  2  1  0
  7 18  1  6
  8 16  1  0
  9  3  1  0
 11 15  1  0
 12  9  2  0
 13  4  2  0
 14  5  1  0
 15  9  1  0
 16 10  1  1
 17  1  2  0
 19 14  1  0
 20 19  1  1
 20  7  1  0
 21  4  1  0
 21 12  1  0
M  END
$$$$

     RDKit          3D

 21 23  0  0  0  0  0  0  0  0999 V2000
   -6.6290   -1.6980  -18.1230 C   0  0  1  0  0  0  0  0  0  0  0  0
   -2.6970   -1.9620  -17.5250 C   0  0  0  0  0  0  0  0  0  0  0  0
   -7.7080   -3.3180  -15.1520 C   0  0  0  0  0  0  0  0  0  0  0  0
   -3.9330   -1.4370  -18.0230 C   0  0  0  0  0  0  0  0  0  0  0  0
    0.6960   -0.8950  -17.4230 C   0  0  0  0  0  0  0  0  0  0  0  0
   -2.6720    0.0630  -19.5200 C   0  0  0  0  0  0  0  0  0  0  0  0
   -1.4720   -1.5790  -18.1940 C   0  0  0  0  0  0  0  0  0  0  0  0
   -3.0730   -4.0750  -16.4690 C   0  0  0  0  0  0  0  0  0  0  0  0
   -6.9840   -2.6540  -16.2700 N   0  0  0  0  0  0  0  0  0  0  0  0
   -2.1340   -2.3360  -15.0300 C   0  0  0  0  0  0  0  0  0  0  0  0
   -9.0720   -2.1830  -17.5940 C   0  0  0  0  0  0  0  0  0  0  0  0
   -5.5940   -2.5060  -16.3570 C   0  0  0  0  0  0  0  0  0  0  0  0
   -3.8900   -0.4370  -19.0270 C   0  0  0  0  0  0  0  0  0  0  0  0
    0.6960    0.2210  -18.5620 C   0  0  0  0  0  0  0  0  0  0  0  0
   -7.5800   -2.1050  -17.3440 N   0  0  0  0  0  0  0  0  0  0  0  0
   -2.7000   -2.6660  -16.3700 N   0  0  0  0  0  0  0  0  0  0  0  0
   -7.0350   -0.8400  -19.3930 C   0  0  0  0  0  0  0  0  0  0  0  0
   -0.1050   -2.1000  -17.7960 C   0  0  0  0  0  0  0  0  0  0  0  0
   -0.1190   -0.2910  -19.7610 C   0  0  0  0  0  0  0  0  0  0  0  0
   -1.5400   -0.6420  -19.1820 C   0  0  0  0  0  0  0  0  0  0  0  0
   -5.2970   -1.8010  -17.6120 C   0  0  0  0  0  0  0  0  0  0  0  0
  1 17  1  1
  1 21  1  0
  1 15  1  0
  2 16  1  0
  4 21  1  0
  4  2  2  0
  6 20  1  0
  6 13  2  0
  7 18  1  0
  7  2  1  0
  8 16  1  0
  9  3  1  0
 11 15  1  0
 12  9  1  0
 13  4  1  0
 14  5  1  0
 15  9  1  0
 16 10  1  0
 18  5  1  0
 19 20  1  0
 19 14  1  0
 20  7  2  0
 21 12  2  0
M  END
$$$$

     RDKit          3D

 21 23  0  0  0  0  0  0  0  0999 V2000
   -6.4570   -1.7500  -18.0000 C   0  0  0  0  0  0  0  0  0  0  0  0
   -2.7340   -1.8080  -17.3180 C   0  0  1  0  0  0  0  0  0  0  0  0
   -7.7990   -3.1450  -14.9130 N   0  0  0  0  0  0  0  0  0  0  0  0
   -3.9140   -1.5530  -17.9090 C   0  0  0  0  0  0  0  0  0  0  0  0
    0.8610   -0.4030  -17.7220 C   0  0  0  0  0  0  0  0  0  0  0  0
   -2.7300   -0.4490  -19.6450 N   0  0  0  0  0  0  0  0  0  0  0  0
   -1.4620   -0.8620  -17.5840 C   0  0  1  0  0  0  0  0  0  0  0  0
   -2.7340   -4.1420  -16.6730 C   0  0  0  0  0  0  0  0  0  0  0  0
   -7.0900   -2.6960  -15.9450 C   0  0  0  0  0  0  0  0  0  0  0  0
   -2.0220   -2.4470  -14.9770 C   0  0  0  0  0  0  0  0  0  0  0  0
   -8.9840   -2.0420  -17.3950 C   0  0  0  0  0  0  0  0  0  0  0  0
   -5.4810   -2.7400  -15.9210 S   0  0  0  0  0  0  0  0  0  0  0  0
   -3.8440   -0.8950  -19.0900 N   0  0  0  0  0  0  0  0  0  0  0  0
    0.5270    0.5310  -18.7930 C   0  0  0  0  0  0  0  0  0  0  0  0
   -7.5360   -2.1820  -17.1000 N   0  0  0  0  0  0  0  0  0  0  0  0
   -2.5220   -2.7210  -16.3130 N   0  0  0  0  0  0  0  0  0  0  0  0
   -6.6880   -1.0570  -19.2920 C   0  0  0  0  0  0  0  0  0  0  0  0
   -0.1920   -1.5880  -17.6970 C   0  0  0  0  0  0  0  0  0  0  0  0
   -0.4210   -0.1710  -19.8010 C   0  0  0  0  0  0  0  0  0  0  0  0
   -1.6240   -0.5310  -19.0530 C   0  0  0  0  0  0  0  0  0  0  0  0
   -5.2400   -1.9590  -17.4000 C   0  0  0  0  0  0  0  0  0  0  0  0
  1 21  2  0
  1 15  1  0
  2 16  1  1
  4 21  1  0
  4  2  1  0
  5 18  1  0
  6 13  1  0
  6 20  2  0
  7 18  1  6
  7  2  1  0
  8 16  1  0
  9 12  1  0
  9  3  2  0
 11 15  1  0
 13  4  2  0
 14  5  1  0
 15  9  1  0
 16 10  1  0
 17  1  1  0
 19 20  1  0
 19 14  1  0
 20  7  1  0
 21 12  1  0
M  END
$$$$

     RDKit          3D

 21 23  0  0  0  0  0  0  0  0999 V2000
   -6.8430   -1.8190  -17.9050 C   0  0  0  0  0  0  0  0  0  0  0  0
   -3.0660   -2.1190  -17.5690 C   0  0  1  0  0  0  0  0  0  0  0  0
   -7.8130   -3.0610  -14.7200 O   0  0  0  0  0  0  0  0  0  0  0  0
   -4.2930   -1.5750  -17.9490 C   0  0  1  0  0  0  0  0  0  0  0  0
    0.1790   -0.7020  -17.5610 C   0  0  0  0  0  0  0  0  0  0  0  0
   -3.2220    0.0380  -19.3680 C   0  0  0  0  0  0  0  0  0  0  0  0
   -2.0740   -1.4650  -17.9840 C   0  0  1  0  0  0  0  0  0  0  0  0
   -2.4950   -4.3070  -17.1650 O   0  0  0  0  0  0  0  0  0  0  0  0
   -7.1400   -2.6940  -15.8660 C   0  0  0  0  0  0  0  0  0  0  0  0
   -2.4680   -2.9260  -15.4300 O   0  0  0  0  0  0  0  0  0  0  0  0
   -9.2090   -2.2480  -17.2480 C   0  0  0  0  0  0  0  0  0  0  0  0
   -5.5670   -2.8170  -15.9950 S   0  0  0  0  0  0  0  0  0  0  0  0
   -4.2860   -0.7190  -18.9240 N   0  0  0  0  0  0  0  0  0  0  0  0
    0.3920   -0.4790  -19.0020 O   0  0  0  0  0  0  0  0  0  0  0  0
   -7.8090   -2.2760  -17.0000 N   0  0  0  0  0  0  0  0  0  0  0  0
   -2.6750   -3.1360  -16.6820 C   0  0  0  0  0  0  0  0  0  0  0  0
   -7.0520   -1.2970  -18.9780 O   0  0  0  0  0  0  0  0  0  0  0  0
   -0.7370   -1.7680  -17.3250 O   0  0  0  0  0  0  0  0  0  0  0  0
   -0.7770    0.1710  -19.4230 C   0  0  0  0  0  0  0  0  0  0  0  0
   -1.9050   -0.7670  -19.3130 C   0  0  2  0  0  0  0  0  0  0  0  0
   -5.4610   -1.9330  -17.4310 C   0  0  2  0  0  0  0  0  0  0  0  0
  1 15  1  0
  2 16  1  1
  4 13  1  6
  4  2  1  0
  4 21  1  0
  5 18  1  0
 20  6  1  1
  6 13  1  0
  7  2  1  0
  7 18  1  6
  8 16  2  0
  9  3  2  0
 11 15  1  0
 12  9  1  0
 14  5  1  0
 15  9  1  0
 16 10  1  0
 17  1  2  0
 19 14  1  0
 20 19  1  0
 20  7  1  0
 21  1  1  0
 21 12  1  6
M  END
$$$$

     RDKit          3D

 21 23  0  0  0  0  0  0  0  0999 V2000
   -6.7440   -1.7640  -18.0100 C   0  0  2  0  0  0  0  0  0  0  0  0
   -2.8770   -2.0330  -17.2770 C   0  0  0  0  0  0  0  0  0  0  0  0
   -7.7850   -3.3290  -14.8900 C   0  0  0  0  0  0  0  0  0  0  0  0
   -4.1160   -1.7050  -17.8490 C   0  0  0  0  0  0  0  0  0  0  0  0
    0.5930   -0.8450  -17.8590 C   0  0  0  0  0  0  0  0  0  0  0  0
   -3.0370   -0.3950  -19.6050 N   0  0  0  0  0  0  0  0  0  0  0  0
   -1.7180   -1.3390  -17.8430 C   0  0  0  0  0  0  0  0  0  0  0  0
   -3.2110   -4.2260  -16.7700 C   0  0  0  0  0  0  0  0  0  0  0  0
   -7.1130   -2.7270  -16.0830 N   0  0  0  0  0  0  0  0  0  0  0  0
   -2.7870   -2.6190  -14.8880 C   0  0  0  0  0  0  0  0  0  0  0  0
   -9.1070   -2.0920  -17.3850 C   0  0  0  0  0  0  0  0  0  0  0  0
   -5.7810   -2.7370  -16.1660 N   0  0  0  0  0  0  0  0  0  0  0  0
   -4.1370   -0.9600  -19.0390 C   0  0  0  0  0  0  0  0  0  0  0  0
    0.3270    0.1890  -18.7430 C   0  0  0  0  0  0  0  0  0  0  0  0
   -7.7040   -2.1650  -17.1150 N   0  0  0  0  0  0  0  0  0  0  0  0
   -2.8210   -2.9440  -16.2670 N   0  0  0  0  0  0  0  0  0  0  0  0
   -7.1080   -1.2820  -19.3420 C   0  0  0  0  0  0  0  0  0  0  0  0
   -0.4740   -1.5480  -17.3000 C   0  0  0  0  0  0  0  0  0  0  0  0
   -0.8110    0.1440  -19.4590 C   0  0  0  0  0  0  0  0  0  0  0  0
   -1.9570   -0.5530  -18.9800 C   0  0  0  0  0  0  0  0  0  0  0  0
   -5.4710   -2.0850  -17.2870 C   0  0  0  0  0  0  0  0  0  0  0  0
  1 17  1  6
  1 21  1  0
  1 15  1  0
  2 16  1  0
  4 21  1  0
  4  2  2  0
  5 18  1  0
  6 13  2  0
  6 20  1  0
  7 18  2  0
  7  2  1  0
  8 16  1  0
  9  3  1  0
 11 15  1  0
 12  9  1  0
 13  4  1  0
 14  5  2  0
 15  9  1  0
 16 10  1  0
 19 20  2  0
 19 14  1  0
 20  7  1  0
 21 12  2  0
M  END
$$$$

     RDKit          3D

 21 24  0  0  0  0  0  0  0  0999 V2000
   -6.3010   -1.7430  -17.8030 C   0  0  0  0  0  0  0  0  0  0  0  0
   -2.6430   -2.0150  -17.4050 C   0  0  0  0  0  0  0  0  0  0  0  0
   -7.6650   -3.1850  -15.1940 O   0  0  0  0  0  0  0  0  0  0  0  0
   -3.9160   -1.8150  -17.9070 C   0  0  0  0  0  0  0  0  0  0  0  0
    0.4000   -0.3700  -17.9860 C   0  0  0  0  0  0  0  0  0  0  0  0
   -3.2310   -0.6340  -19.8970 C   0  0  0  0  0  0  0  0  0  0  0  0
   -1.6280   -1.4010  -18.1940 C   0  0  0  0  0  0  0  0  0  0  0  0
   -2.6030   -4.0130  -16.4910 O   0  0  0  0  0  0  0  0  0  0  0  0
   -6.9310   -2.7300  -16.0480 C   0  0  0  0  0  0  0  0  0  0  0  0
   -2.1150   -2.3220  -15.1680 O   0  0  0  0  0  0  0  0  0  0  0  0
   -8.7500   -1.7700  -17.4410 C   0  0  0  0  0  0  0  0  0  0  0  0
   -5.5130   -2.9490  -15.9550 C   0  0  0  0  0  0  0  0  0  0  0  0
   -4.2360   -1.1470  -19.1190 C   0  0  0  0  0  0  0  0  0  0  0  0
    0.4750   -0.0870  -19.4800 C   0  0  0  0  0  0  0  0  0  0  0  0
   -7.3620   -2.0210  -17.1380 N   0  0  0  0  0  0  0  0  0  0  0  0
   -2.3600   -2.8650  -16.2200 C   0  0  0  0  0  0  0  0  0  0  0  0
   -5.9730   -1.0000  -19.3410 S   0  0  0  0  0  0  0  0  0  0  0  0
   -0.1860   -1.7950  -17.8880 C   0  0  0  0  0  0  0  0  0  0  0  0
   -0.8700   -0.1540  -20.2140 C   0  0  0  0  0  0  0  0  0  0  0  0
   -1.8850   -0.7850  -19.3720 C   0  0  0  0  0  0  0  0  0  0  0  0
   -5.1220   -2.1980  -17.1730 C   0  0  0  0  0  0  0  0  0  0  0  0
  1 21  2  0
  1 15  1  0
  2 16  1  0
  4  2  2  0
  4 21  1  0
  5 18  1  0
  6 20  1  0
  6 13  2  0
  7 18  1  0
  7  2  1  0
  8 16  2  0
  9 12  1  0
  9  3  2  0
 11 15  1  0
 13  4  1  0
 14  5  1  0
 15  9  1  0
 16 10  1  0
 17 13  1  0
 17  1  1  0
 19 14  1  0
 19 20  1  0
 20  7  2  0
 21 12  1  0
M  END
$$$$

     RDKit          3D

 21 23  0  0  0  0  0  0  0  0999 V2000
   -6.5880   -1.7410  -17.9770 C   0  0  0  0  0  0  0  0  0  0  0  0
   -2.8390   -2.0470  -17.5410 C   0  0  0  0  0  0  0  0  0  0  0  0
   -7.5470   -3.3480  -14.9920 O   0  0  0  0  0  0  0  0  0  0  0  0
   -4.0600   -1.6440  -18.1270 C   0  0  0  0  0  0  0  0  0  0  0  0
    0.6250   -0.6780  -17.6830 C   0  0  0  0  0  0  0  0  0  0  0  0
   -2.9710   -0.1050  -19.7840 C   0  0  0  0  0  0  0  0  0  0  0  0
   -1.7410   -1.2720  -17.8280 C   0  0  0  0  0  0  0  0  0  0  0  0
   -2.5600   -4.2990  -17.3640 O   0  0  0  0  0  0  0  0  0  0  0  0
   -6.9890   -2.7940  -15.9840 C   0  0  0  0  0  0  0  0  0  0  0  0
   -2.4510   -3.2260  -15.3140 C   0  0  0  0  0  0  0  0  0  0  0  0
   -8.9440   -2.1870  -17.2910 C   0  0  0  0  0  0  0  0  0  0  0  0
   -5.2660   -2.8130  -15.9180 S   0  0  0  0  0  0  0  0  0  0  0  0
   -4.1310   -0.9100  -19.3570 C   0  0  0  0  0  0  0  0  0  0  0  0
    0.5850    0.0090  -18.7410 C   0  0  0  0  0  0  0  0  0  0  0  0
   -7.5130   -2.1750  -17.0670 N   0  0  0  0  0  0  0  0  0  0  0  0
   -2.5500   -3.1750  -16.8110 C   0  0  0  0  0  0  0  0  0  0  0  0
   -6.9200   -1.0800  -19.1020 N   0  0  0  0  0  0  0  0  0  0  0  0
   -0.4900   -1.6440  -17.3410 C   0  0  0  0  0  0  0  0  0  0  0  0
   -0.7000    0.5770  -19.1970 C   0  0  0  0  0  0  0  0  0  0  0  0
   -1.8110   -0.2280  -18.9510 C   0  0  1  0  0  0  0  0  0  0  0  0
   -5.2960   -1.9670  -17.4870 C   0  0  0  0  0  0  0  0  0  0  0  0
  1 21  2  0
  1 15  1  0
  2 16  1  0
  4  2  1  0
  4 21  1  0
  5 18  1  0
  6 13  1  0
  7  2  2  0
  7 18  1  0
  8 16  2  0
  9 12  1  0
  9  3  2  0
 11 15  1  0
 13  4  1  0
 14  5  1  0
 15  9  1  0
 16 10  1  0
 17  1  1  0
 20 19  1  6
 19 14  1  0
 20  6  1  0
 20  7  1  0
 21 12  1  0
M  END
$$$$

     RDKit          3D

 21 23  0  0  0  0  0  0  0  0999 V2000
   -6.6500   -1.6690  -18.1180 C   0  0  0  0  0  0  0  0  0  0  0  0
   -2.6560   -1.6870  -17.4880 C   0  0  0  0  0  0  0  0  0  0  0  0
   -7.6190   -3.3000  -15.0780 C   0  0  0  0  0  0  0  0  0  0  0  0
   -3.9580   -1.3990  -18.0740 C   0  0  0  0  0  0  0  0  0  0  0  0
    0.8380   -0.8830  -17.6690 N   0  0  0  0  0  0  0  0  0  0  0  0
   -2.7440   -0.0600  -19.7460 C   0  0  0  0  0  0  0  0  0  0  0  0
   -1.5580   -1.2760  -18.0170 C   0  0  0  0  0  0  0  0  0  0  0  0
   -2.8540   -4.0970  -16.5870 C   0  0  0  0  0  0  0  0  0  0  0  0
   -6.9150   -2.6590  -16.2370 C   0  0  0  0  0  0  0  0  0  0  0  0
   -2.7310   -2.4560  -14.9480 C   0  0  0  0  0  0  0  0  0  0  0  0
   -9.0440   -2.0740  -17.3400 C   0  0  0  0  0  0  0  0  0  0  0  0
   -5.5620   -2.4850  -16.4120 N   0  0  0  0  0  0  0  0  0  0  0  0
   -3.9070   -0.5550  -19.2030 C   0  0  0  0  0  0  0  0  0  0  0  0
    0.8000   -0.0650  -18.7840 C   0  0  0  0  0  0  0  0  0  0  0  0
   -7.5730   -2.1810  -17.2620 N   0  0  0  0  0  0  0  0  0  0  0  0
   -2.7960   -2.6820  -16.3990 N   0  0  0  0  0  0  0  0  0  0  0  0
   -6.9990   -1.2580  -19.2980 O   0  0  0  0  0  0  0  0  0  0  0  0
   -0.3800   -1.3810  -17.2510 C   0  0  0  0  0  0  0  0  0  0  0  0
   -0.4020    0.3610  -19.4160 C   0  0  0  0  0  0  0  0  0  0  0  0
   -1.5680   -0.3340  -19.0930 C   0  0  0  0  0  0  0  0  0  0  0  0
   -5.2710   -1.8250  -17.5770 C   0  0  0  0  0  0  0  0  0  0  0  0
  1 21  1  0
  1 15  1  0
  2 16  1  0
  4  2  2  0
  5 18  1  0
  6 13  2  0
  6 20  1  0
  7  2  1  0
  7 18  2  0
  8 16  1  0
  9  3  1  0
 11 15  1  0
 12  9  2  0
 13  4  1  0
 14  5  2  0
 15  9  1  0
 16 10  1  0
 17  1  2  0
 19 20  2  0
 19 14  1  0
 20  7  1  0
 21  4  1  0
 21 12  1  0
M  END
$$$$

     RDKit          3D

 21 23  0  0  0  0  0  0  0  0999 V2000
   -6.5090   -1.5610  -17.9860 C   0  0  0  0  0  0  0  0  0  0  0  0
   -2.8140   -1.8220  -17.1600 C   0  0  0  0  0  0  0  0  0  0  0  0
   -7.3080   -3.5490  -15.0250 C   0  0  0  0  0  0  0  0  0  0  0  0
   -4.0100   -1.5630  -17.9620 C   0  0  0  0  0  0  0  0  0  0  0  0
    0.7640   -0.6550  -17.3580 C   0  0  0  0  0  0  0  0  0  0  0  0
   -2.7130   -0.3970  -19.5650 C   0  0  0  0  0  0  0  0  0  0  0  0
   -1.6100   -1.2840  -17.6640 C   0  0  0  0  0  0  0  0  0  0  0  0
   -3.1800   -4.1380  -16.3960 O   0  0  0  0  0  0  0  0  0  0  0  0
   -6.7980   -2.7230  -16.1540 C   0  0  0  0  0  0  0  0  0  0  0  0
   -2.6340   -2.7390  -14.5430 C   0  0  0  0  0  0  0  0  0  0  0  0
   -8.8650   -1.7390  -17.2520 C   0  0  0  0  0  0  0  0  0  0  0  0
   -5.4640   -2.6450  -16.2970 N   0  0  0  0  0  0  0  0  0  0  0  0
   -3.9710   -0.8780  -19.1590 C   0  0  0  0  0  0  0  0  0  0  0  0
    0.4770    0.6990  -18.1260 C   0  0  0  0  0  0  0  0  0  0  0  0
   -7.4900   -2.0480  -17.1110 N   0  0  0  0  0  0  0  0  0  0  0  0
   -2.7250   -2.8890  -16.0640 C   0  0  2  0  0  0  0  0  0  0  0  0
   -6.7760   -1.0340  -19.0970 O   0  0  0  0  0  0  0  0  0  0  0  0
   -0.4660   -1.1310  -16.7100 C   0  0  0  0  0  0  0  0  0  0  0  0
   -0.3180    0.0700  -19.1870 C   0  0  0  0  0  0  0  0  0  0  0  0
   -1.6410   -0.4120  -18.7480 C   0  0  0  0  0  0  0  0  0  0  0  0
   -5.2870   -1.9030  -17.4220 C   0  0  0  0  0  0  0  0  0  0  0  0
  1 21  1  0
  1 15  1  0
  2 16  1  0
  4  2  2  0
  5 18  1  0
  6 13  2  0
  6 20  1  0
  7  2  1  0
  7 18  1  0
  8 16  1  0
  9  3  1  0
 11 15  1  0
 12  9  2  0
 13  4  1  0
 14  5  1  0
 15  9  1  0
 16 10  1  1
 17  1  2  0
 19 20  1  0
 19 14  1  0
 20  7  2  0
 21  4  1  0
 21 12  1  0
M  END
$$$$

     RDKit          3D

 21 23  0  0  0  0  0  0  0  0999 V2000
   -6.7780   -1.6540  -18.1320 C   0  0  0  0  0  0  0  0  0  0  0  0
   -2.7520   -1.9150  -17.6020 C   0  0  0  0  0  0  0  0  0  0  0  0
   -7.7780   -3.2890  -14.9830 C   0  0  0  0  0  0  0  0  0  0  0  0
   -4.0650   -1.4100  -18.1520 C   0  0  0  0  0  0  0  0  0  0  0  0
    0.7710   -0.9380  -17.6420 C   0  0  0  0  0  0  0  0  0  0  0  0
   -2.7410   -0.1370  -19.8960 C   0  0  0  0  0  0  0  0  0  0  0  0
   -1.5370   -1.4620  -18.1750 C   0  0  0  0  0  0  0  0  0  0  0  0
   -3.2500   -4.2070  -16.5730 C   0  0  0  0  0  0  0  0  0  0  0  0
   -7.0950   -2.6610  -16.2270 C   0  0  0  0  0  0  0  0  0  0  0  0
   -1.9610   -2.5710  -15.2280 C   0  0  0  0  0  0  0  0  0  0  0  0
   -9.2860   -2.2180  -17.4660 C   0  0  0  0  0  0  0  0  0  0  0  0
   -5.7000   -2.5370  -16.4550 C   0  0  0  0  0  0  0  0  0  0  0  0
   -3.9780   -0.5380  -19.3760 C   0  0  0  0  0  0  0  0  0  0  0  0
    0.8230    0.0480  -18.8310 N   0  0  0  0  0  0  0  0  0  0  0  0
   -7.7790   -2.1430  -17.2990 N   0  0  0  0  0  0  0  0  0  0  0  0
   -2.7450   -2.8460  -16.4390 N   0  0  0  0  0  0  0  0  0  0  0  0
   -7.1940   -0.9050  -19.1620 N   0  0  0  0  0  0  0  0  0  0  0  0
   -0.1800   -2.0690  -17.8670 C   0  0  0  0  0  0  0  0  0  0  0  0
   -0.1870   -0.0850  -19.7560 C   0  0  0  0  0  0  0  0  0  0  0  0
   -1.4750   -0.6010  -19.2570 C   0  0  0  0  0  0  0  0  0  0  0  0
   -5.4500   -1.8270  -17.6020 C   0  0  0  0  0  0  0  0  0  0  0  0
  1 21  2  0
  1 15  1  0
  2 16  1  0
  4  2  2  0
  4 21  1  0
  6 13  2  0
  6 20  1  0
  7 18  1  0
  7  2  1  0
  8 16  1  0
  9  3  1  0
 11 15  1  0
 12  9  2  0
 13  4  1  0
 14  5  1  0
 15  9  1  0
 16 10  1  0
 17  1  1  0
 18  5  1  0
 19 20  1  0
 19 14  1  0
 20  7  2  0
 21 12  1  0
M  END
$$$$

     RDKit          3D

 21 23  0  0  0  0  0  0  0  0999 V2000
   -6.5750   -1.8240  -17.9380 C   0  0  0  0  0  0  0  0  0  0  0  0
   -2.7340   -1.6380  -17.0580 C   0  0  0  0  0  0  0  0  0  0  0  0
   -7.9540   -3.4560  -14.8890 C   0  0  0  0  0  0  0  0  0  0  0  0
   -3.9460   -1.6640  -17.8910 C   0  0  0  0  0  0  0  0  0  0  0  0
    0.8730   -0.7640  -17.9360 N   0  0  0  0  0  0  0  0  0  0  0  0
   -2.8470   -0.5900  -19.5940 N   0  0  0  0  0  0  0  0  0  0  0  0
   -1.6380   -1.1990  -17.7850 C   0  0  0  0  0  0  0  0  0  0  0  0
   -3.0300   -4.0400  -16.6380 C   0  0  0  0  0  0  0  0  0  0  0  0
   -7.2490   -2.8000  -15.9630 C   0  0  0  0  0  0  0  0  0  0  0  0
   -2.3860   -2.3830  -14.7370 C   0  0  0  0  0  0  0  0  0  0  0  0
   -8.9540   -1.9000  -17.3530 C   0  0  0  0  0  0  0  0  0  0  0  0
   -5.5050   -2.7070  -15.8850 S   0  0  0  0  0  0  0  0  0  0  0  0
   -3.8830   -1.1160  -19.0710 C   0  0  0  0  0  0  0  0  0  0  0  0
    0.3160    0.4440  -18.5830 C   0  0  0  0  0  0  0  0  0  0  0  0
   -7.5930   -2.2020  -17.0480 N   0  0  0  0  0  0  0  0  0  0  0  0
   -2.6850   -2.6880  -16.2030 N   0  0  0  0  0  0  0  0  0  0  0  0
   -6.7890   -1.3340  -19.2950 C   0  0  0  0  0  0  0  0  0  0  0  0
   -0.2300   -1.5250  -17.2760 C   0  0  0  0  0  0  0  0  0  0  0  0
   -0.5200   -0.1300  -19.7860 C   0  0  0  0  0  0  0  0  0  0  0  0
   -1.7220   -0.6540  -18.9630 C   0  0  0  0  0  0  0  0  0  0  0  0
   -5.2440   -1.9610  -17.3780 C   0  0  0  0  0  0  0  0  0  0  0  0
  1 21  2  0
  1 15  1  0
  2 16  1  0
  4 21  1  0
  4  2  2  0
  5 18  1  0
  6 13  2  0
  6 20  1  0
  7 18  1  0
  7  2  1  0
  8 16  1  0
  9 12  1  0
  9  3  1  0
 11 15  1  0
 13  4  1  0
 14  5  1  0
 15  9  1  0
 16 10  1  0
 17  1  1  0
 19 20  1  0
 19 14  1  0
 20  7  2  0
 21 12  1  0
M  END
$$$$

     RDKit          3D

 21 23  0  0  0  0  0  0  0  0999 V2000
   -6.8680   -1.7450  -17.8290 C   0  0  0  0  0  0  0  0  0  0  0  0
   -2.9670   -2.0700  -17.4560 C   0  0  0  0  0  0  0  0  0  0  0  0
   -7.9770   -3.3610  -14.8140 C   0  0  0  0  0  0  0  0  0  0  0  0
   -4.2430   -1.6610  -17.9330 C   0  0  0  0  0  0  0  0  0  0  0  0
    0.3940   -0.5270  -17.9090 C   0  0  0  0  0  0  0  0  0  0  0  0
   -3.1170   -0.2800  -19.6470 C   0  0  0  0  0  0  0  0  0  0  0  0
   -1.7580   -1.5220  -18.1760 C   0  0  0  0  0  0  0  0  0  0  0  0
   -2.3740   -4.1630  -16.8290 O   0  0  0  0  0  0  0  0  0  0  0  0
   -7.2670   -2.8260  -15.8620 C   0  0  0  0  0  0  0  0  0  0  0  0
   -2.2530   -2.4910  -15.3230 O   0  0  0  0  0  0  0  0  0  0  0  0
   -9.2320   -1.9880  -17.1820 C   0  0  0  0  0  0  0  0  0  0  0  0
   -5.5130   -2.9030  -15.8710 S   0  0  0  0  0  0  0  0  0  0  0  0
   -4.3070   -0.8350  -19.1570 C   0  0  0  0  0  0  0  0  0  0  0  0
    0.5340   -0.3090  -18.8920 O   0  0  0  0  0  0  0  0  0  0  0  0
   -7.8120   -2.2080  -16.9630 N   0  0  0  0  0  0  0  0  0  0  0  0
   -2.5540   -2.9460  -16.4630 C   0  0  0  0  0  0  0  0  0  0  0  0
   -7.1730   -1.2150  -18.9390 O   0  0  0  0  0  0  0  0  0  0  0  0
   -0.4290   -1.6820  -17.4580 C   0  0  0  0  0  0  0  0  0  0  0  0
   -0.7300    0.2910  -19.5980 C   0  0  0  0  0  0  0  0  0  0  0  0
   -1.8620   -0.5550  -19.1530 C   0  0  0  0  0  0  0  0  0  0  0  0
   -5.5230   -2.0540  -17.3710 C   0  0  1  0  0  0  0  0  0  0  0  0
  1 21  1  0
  1 15  1  0
  2 16  1  0
  4  2  2  0
  5 18  1  0
  6 13  2  0
  6 20  1  0
  7 18  1  0
  7  2  1  0
  8 16  2  0
  9  3  2  0
 11 15  1  0
 12  9  1  0
 13  4  1  0
 14  5  1  0
 15  9  1  0
 16 10  1  0
 17  1  2  0
 19 20  1  0
 19 14  1  0
 20  7  2  0
 21  4  1  1
 21 12  1  0
M  END
$$$$

     RDKit          3D

 21 23  0  0  0  0  0  0  0  0999 V2000
   -6.8810   -1.7380  -18.1980 C   0  0  0  0  0  0  0  0  0  0  0  0
   -2.9980   -1.8580  -17.5100 N   0  0  0  0  0  0  0  0  0  0  0  0
   -7.9170   -3.2800  -14.9860 C   0  0  0  0  0  0  0  0  0  0  0  0
   -4.2750   -1.7050  -18.0400 C   0  0  2  0  0  0  0  0  0  0  0  0
    0.7780   -0.6290  -17.9990 C   0  0  0  0  0  0  0  0  0  0  0  0
   -2.9370   -0.7030  -19.8520 N   0  0  0  0  0  0  0  0  0  0  0  0
   -1.7760   -1.1600  -17.8570 C   0  0  1  0  0  0  0  0  0  0  0  0
   -2.6130   -4.1640  -16.8250 C   0  0  0  0  0  0  0  0  0  0  0  0
   -7.2420   -2.7000  -16.1570 N   0  0  0  0  0  0  0  0  0  0  0  0
   -2.7150   -2.3940  -15.3450 O   0  0  0  0  0  0  0  0  0  0  0  0
   -9.4110   -1.9850  -17.3970 C   0  0  0  0  0  0  0  0  0  0  0  0
   -5.8580   -2.5310  -16.3480 N   0  0  0  0  0  0  0  0  0  0  0  0
   -4.0470   -1.0110  -19.1650 C   0  0  0  0  0  0  0  0  0  0  0  0
    0.3810    0.6000  -18.7780 C   0  0  0  0  0  0  0  0  0  0  0  0
   -7.8920   -2.1450  -17.2610 C   0  0  0  0  0  0  0  0  0  0  0  0
   -2.8230   -2.8210  -16.4990 N   0  0  0  0  0  0  0  0  0  0  0  0
   -7.1560   -1.2450  -19.3070 C   0  0  0  0  0  0  0  0  0  0  0  0
   -0.1830   -1.6440  -17.6110 C   0  0  0  0  0  0  0  0  0  0  0  0
   -0.7480    0.2830  -19.6860 C   0  0  0  0  0  0  0  0  0  0  0  0
   -1.6300   -0.9800  -19.3660 C   0  0  2  0  0  0  0  0  0  0  0  0
   -5.5680   -1.9910  -17.5630 C   0  0  0  0  0  0  0  0  0  0  0  0
  1 21  1  0
  1 15  2  0
  2 16  1  0
  4 21  1  1
  4  2  1  0
  5 18  1  0
  6 20  1  0
  6 13  2  0
  7 18  1  6
  7  2  1  0
  8 16  1  0
  9  3  1  0
 11 15  1  0
 12  9  1  0
 13  4  1  0
 14  5  1  0
 15  9  1  0
 16 10  1  0
 17  1  1  0
 19 14  1  0
 20 19  1  1
 20  7  1  0
 21 12  2  0
M  END
$$$$

     RDKit          3D

 21 24  0  0  0  0  0  0  0  0999 V2000
   -6.2600   -1.6990  -17.8380 C   0  0  0  0  0  0  0  0  0  0  0  0
   -2.6950   -1.9420  -17.4870 C   0  0  2  0  0  0  0  0  0  0  0  0
   -7.5960   -3.3360  -15.0030 C   0  0  0  0  0  0  0  0  0  0  0  0
   -3.9450   -1.7180  -17.8450 C   0  0  0  0  0  0  0  0  0  0  0  0
    0.6090   -0.3810  -18.1400 C   0  0  0  0  0  0  0  0  0  0  0  0
   -3.1400   -0.4850  -19.8370 C   0  0  0  0  0  0  0  0  0  0  0  0
   -1.5920   -1.2860  -18.0620 C   0  0  1  0  0  0  0  0  0  0  0  0
   -2.3330   -4.1160  -16.8620 O   0  0  0  0  0  0  0  0  0  0  0  0
   -6.8340   -2.6730  -16.1110 C   0  0  0  0  0  0  0  0  0  0  0  0
   -2.0960   -2.5220  -15.3480 N   0  0  0  0  0  0  0  0  0  0  0  0
   -8.6880   -1.6940  -17.4880 C   0  0  0  0  0  0  0  0  0  0  0  0
   -5.4940   -2.8050  -16.1480 N   0  0  0  0  0  0  0  0  0  0  0  0
   -4.2220   -1.1350  -19.0240 C   0  0  0  0  0  0  0  0  0  0  0  0
    0.5670   -0.1090  -19.3850 C   0  0  0  0  0  0  0  0  0  0  0  0
   -7.2900   -2.0370  -17.1170 N   0  0  0  0  0  0  0  0  0  0  0  0
   -2.3560   -2.9600  -16.5760 C   0  0  0  0  0  0  0  0  0  0  0  0
   -5.8670   -0.9400  -19.2960 S   0  0  0  0  0  0  0  0  0  0  0  0
   -0.1790   -1.4230  -17.5790 C   0  0  0  0  0  0  0  0  0  0  0  0
   -0.9270    0.2780  -19.7390 C   0  0  0  0  0  0  0  0  0  0  0  0
   -1.6990   -0.8220  -19.5330 N   0  0  0  0  0  0  0  0  0  0  0  0
   -5.0950   -2.1340  -17.3050 C   0  0  0  0  0  0  0  0  0  0  0  0
  1 21  2  0
  1 15  1  0
  2 16  1  6
  4  2  1  0
  4 21  1  0
  5 18  1  0
  6 13  1  0
  7 18  1  6
  7  2  1  0
  8 16  2  0
  9  3  1  0
 11 15  1  0
 12  9  2  0
 13  4  2  0
 14  5  1  0
 15  9  1  0
 16 10  1  0
 17 13  1  0
 17  1  1  0
 19 20  1  0
 19 14  1  0
 20  6  1  0
 20  7  1  0
 21 12  1  0
M  END
$$$$

     RDKit          3D

 21 23  0  0  0  0  0  0  0  0999 V2000
   -6.7170   -1.6990  -18.0920 C   0  0  0  0  0  0  0  0  0  0  0  0
   -2.8740   -1.9840  -17.5510 C   0  0  0  0  0  0  0  0  0  0  0  0
   -7.5790   -3.1200  -15.0210 O   0  0  0  0  0  0  0  0  0  0  0  0
   -4.1570   -1.5860  -18.0630 C   0  0  0  0  0  0  0  0  0  0  0  0
    0.5490   -0.8610  -17.8550 C   0  0  0  0  0  0  0  0  0  0  0  0
   -2.9890   -0.2070  -19.6830 C   0  0  0  0  0  0  0  0  0  0  0  0
   -1.7950   -1.2790  -18.0010 C   0  0  0  0  0  0  0  0  0  0  0  0
   -2.6940   -4.3580  -17.2130 C   0  0  0  0  0  0  0  0  0  0  0  0
   -7.0310   -2.6230  -16.0550 C   0  0  0  0  0  0  0  0  0  0  0  0
   -2.5320   -2.7420  -15.2780 C   0  0  0  0  0  0  0  0  0  0  0  0
   -9.0770   -2.0610  -17.4170 C   0  0  0  0  0  0  0  0  0  0  0  0
   -5.7150   -2.5670  -16.2420 N   0  0  0  0  0  0  0  0  0  0  0  0
   -4.1630   -0.7820  -19.2900 C   0  0  0  0  0  0  0  0  0  0  0  0
    0.4100    0.1640  -18.7160 C   0  0  0  0  0  0  0  0  0  0  0  0
   -7.5670   -2.1500  -17.1630 N   0  0  0  0  0  0  0  0  0  0  0  0
   -2.7280   -2.9760  -16.7080 N   0  0  0  0  0  0  0  0  0  0  0  0
   -6.9490   -1.1510  -19.2100 O   0  0  0  0  0  0  0  0  0  0  0  0
   -0.5690   -1.6050  -17.4880 C   0  0  0  0  0  0  0  0  0  0  0  0
   -0.7370    0.3050  -19.4200 C   0  0  0  0  0  0  0  0  0  0  0  0
   -1.8500   -0.3020  -18.9950 C   0  0  0  0  0  0  0  0  0  0  0  0
   -5.3850   -1.9810  -17.4340 C   0  0  0  0  0  0  0  0  0  0  0  0
  1 21  1  0
  1 15  1  0
  2 16  1  0
  4  2  2  0
  4 21  1  0
  5 18  1  0
  6 13  2  0
  6 20  1  0
  7  2  1  0
  7 18  2  0
  8 16  1  0
  9  3  2  0
 11 15  1  0
 12  9  1  0
 13  4  1  0
 14  5  2  0
 15  9  1  0
 16 10  1  0
 17  1  2  0
 19 20  2  0
 19 14  1  0
 20  7  1  0
 21 12  2  0
M  END
$$$$

     RDKit          3D

 21 23  0  0  0  0  0  0  0  0999 V2000
   -6.6440   -1.7890  -18.0350 C   0  0  0  0  0  0  0  0  0  0  0  0
   -2.6400   -1.8870  -17.3350 C   0  0  0  0  0  0  0  0  0  0  0  0
   -7.5090   -3.3370  -14.7810 C   0  0  0  0  0  0  0  0  0  0  0  0
   -3.9650   -1.5430  -18.0350 C   0  0  0  0  0  0  0  0  0  0  0  0
    1.0080   -0.6870  -17.4660 C   0  0  0  0  0  0  0  0  0  0  0  0
   -2.6300   -0.2700  -19.6920 C   0  0  0  0  0  0  0  0  0  0  0  0
   -1.4050   -1.3560  -17.8900 C   0  0  0  0  0  0  0  0  0  0  0  0
   -2.7520   -4.2040  -16.7490 C   0  0  0  0  0  0  0  0  0  0  0  0
   -6.8790   -2.6950  -16.1040 C   0  0  0  0  0  0  0  0  0  0  0  0
   -2.5260   -2.4550  -14.9280 C   0  0  0  0  0  0  0  0  0  0  0  0
   -9.0200   -1.9270  -17.1890 C   0  0  0  0  0  0  0  0  0  0  0  0
   -5.5160   -2.5630  -16.3000 N   0  0  0  0  0  0  0  0  0  0  0  0
   -3.8530   -0.7600  -19.2260 C   0  0  0  0  0  0  0  0  0  0  0  0
    1.0430   -0.3570  -18.9160 C   0  0  0  0  0  0  0  0  0  0  0  0
   -7.5930   -2.1240  -17.0780 N   0  0  0  0  0  0  0  0  0  0  0  0
   -2.5910   -2.8670  -16.3580 N   0  0  0  0  0  0  0  0  0  0  0  0
   -6.9940   -1.2090  -19.4400 C   0  0  0  0  0  0  0  0  0  0  0  0
   -0.1550   -1.5850  -17.0980 C   0  0  0  0  0  0  0  0  0  0  0  0
   -0.2610    0.1840  -19.3140 C   0  0  0  0  0  0  0  0  0  0  0  0
   -1.4290   -0.5040  -18.9110 C   0  0  0  0  0  0  0  0  0  0  0  0
   -5.3320   -1.9730  -17.5020 C   0  0  0  0  0  0  0  0  0  0  0  0
  1 21  2  0
  1 15  1  0
  2 16  1  0
  4 21  1  0
  4  2  2  0
  5 18  1  0
  6 13  2  0
  6 20  1  0
  7  2  1  0
  7 18  1  0
  8 16  1  0
  9  3  1  0
 11 15  1  0
 12  9  2  0
 13  4  1  0
 14  5  1  0
 15  9  1  0
 16 10  1  0
 17  1  1  0
 19 14  1  0
 19 20  1  0
 20  7  2  0
 21 12  1  0
M  END
$$$$

     RDKit          3D

 21 23  0  0  0  0  0  0  0  0999 V2000
   -6.5370   -1.4490  -18.0250 C   0  0  0  0  0  0  0  0  0  0  0  0
   -2.7850   -1.7670  -17.4320 C   0  0  1  0  0  0  0  0  0  0  0  0
   -7.3090   -3.2500  -15.1460 C   0  0  0  0  0  0  0  0  0  0  0  0
   -4.0480   -1.3850  -18.0720 C   0  0  0  0  0  0  0  0  0  0  0  0
    0.5390   -0.7040  -17.4070 C   0  0  0  0  0  0  0  0  0  0  0  0
   -2.7660   -0.2340  -19.7330 C   0  0  0  0  0  0  0  0  0  0  0  0
   -1.7100   -1.0150  -17.6690 C   0  0  1  0  0  0  0  0  0  0  0  0
   -3.0990   -4.1650  -16.4600 C   0  0  0  0  0  0  0  0  0  0  0  0
   -6.8200   -2.5770  -16.2140 C   0  0  0  0  0  0  0  0  0  0  0  0
   -2.6130   -2.4010  -14.7420 C   0  0  0  0  0  0  0  0  0  0  0  0
   -8.9050   -1.7860  -17.2970 C   0  0  0  0  0  0  0  0  0  0  0  0
   -5.5520   -2.4760  -16.3750 N   0  0  0  0  0  0  0  0  0  0  0  0
   -3.9120   -0.8490  -19.2970 C   0  0  0  0  0  0  0  0  0  0  0  0
    0.2440    0.4370  -18.4720 C   0  0  0  0  0  0  0  0  0  0  0  0
   -7.4470   -1.9540  -17.1970 N   0  0  0  0  0  0  0  0  0  0  0  0
   -2.8020   -2.6580  -16.1030 C   0  0  0  0  0  0  0  0  0  0  0  0
   -6.7290   -0.9440  -19.0540 O   0  0  0  0  0  0  0  0  0  0  0  0
   -0.5350   -1.3000  -16.9250 C   0  0  0  0  0  0  0  0  0  0  0  0
   -0.7860    0.7090  -19.0300 C   0  0  0  0  0  0  0  0  0  0  0  0
   -1.7560   -0.3190  -18.7770 C   0  0  2  0  0  0  0  0  0  0  0  0
   -5.2870   -1.7670  -17.5410 C   0  0  0  0  0  0  0  0  0  0  0  0
  1 21  1  0
  1 15  1  0
  2 16  1  1
  4 21  2  3
  4  2  1  0
  5 18  1  0
  6 13  1  0
  7  2  1  0
  7 18  1  6
  8 16  1  0
  9  3  1  0
 11 15  1  0
 12  9  2  0
 13  4  1  0
 14  5  1  0
 15  9  1  0
 16 10  1  0
 17  1  2  0
 20 19  1  1
 19 14  1  0
 20  6  1  0
 20  7  1  0
 21 12  1  0
M  END
$$$$

     RDKit          3D

 21 23  0  0  0  0  0  0  0  0999 V2000
   -6.6210   -1.5750  -18.2250 C   0  0  0  0  0  0  0  0  0  0  0  0
   -2.7780   -1.8080  -17.3990 C   0  0  0  0  0  0  0  0  0  0  0  0
   -7.6800   -3.3600  -15.1970 C   0  0  0  0  0  0  0  0  0  0  0  0
   -3.9090   -1.3300  -17.9550 C   0  0  0  0  0  0  0  0  0  0  0  0
    0.9370   -1.1590  -17.5020 C   0  0  0  0  0  0  0  0  0  0  0  0
   -2.6740   -0.0550  -19.6360 C   0  0  0  0  0  0  0  0  0  0  0  0
   -1.4790   -1.4360  -17.9660 C   0  0  0  0  0  0  0  0  0  0  0  0
   -2.7280   -3.9600  -16.6200 C   0  0  0  0  0  0  0  0  0  0  0  0
   -6.9310   -2.6150  -16.3750 C   0  0  0  0  0  0  0  0  0  0  0  0
   -2.2110   -2.2550  -14.9900 C   0  0  0  0  0  0  0  0  0  0  0  0
   -9.0330   -2.0200  -17.5920 C   0  0  0  0  0  0  0  0  0  0  0  0
   -5.6160   -2.4630  -16.4580 N   0  0  0  0  0  0  0  0  0  0  0  0
   -3.8730   -0.4980  -19.1240 C   0  0  0  0  0  0  0  0  0  0  0  0
    0.8740    0.2470  -18.4680 N   0  0  0  0  0  0  0  0  0  0  0  0
   -7.6250   -2.0580  -17.4390 N   0  0  0  0  0  0  0  0  0  0  0  0
   -2.8490   -2.5820  -16.1990 N   0  0  0  0  0  0  0  0  0  0  0  0
   -6.8820   -0.9610  -19.6050 C   0  0  0  0  0  0  0  0  0  0  0  0
   -0.1090   -2.0430  -17.6150 O   0  0  0  0  0  0  0  0  0  0  0  0
   -0.1930   -0.0900  -19.6590 C   0  0  0  0  0  0  0  0  0  0  0  0
   -1.4390   -0.6620  -19.1370 C   0  0  0  0  0  0  0  0  0  0  0  0
   -5.3270   -1.7040  -17.6840 C   0  0  0  0  0  0  0  0  0  0  0  0
  1 21  2  0
  1 15  1  0
  2 16  1  0
  4 21  1  0
  4  2  2  0
  6 20  1  0
  6 13  2  0
  7 18  1  0
  7  2  1  0
  8 16  1  0
  9  3  1  0
 11 15  1  0
 12  9  2  0
 13  4  1  0
 14  5  1  0
 15  9  1  0
 16 10  1  0
 17  1  1  0
 18  5  1  0
 19 20  1  0
 19 14  1  0
 20  7  2  0
 21 12  1  0
M  END
$$$$

     RDKit          3D

 21 23  0  0  0  0  0  0  0  0999 V2000
   -6.4880   -1.8030  -17.9800 C   0  0  0  0  0  0  0  0  0  0  0  0
   -2.7300   -1.6790  -16.8520 C   0  0  2  0  0  0  0  0  0  0  0  0
   -7.6650   -3.2210  -14.9300 C   0  0  0  0  0  0  0  0  0  0  0  0
   -3.8390   -2.0020  -17.9410 C   0  0  2  0  0  0  0  0  0  0  0  0
    0.6150   -0.1660  -17.4600 C   0  0  0  0  0  0  0  0  0  0  0  0
   -3.0010   -0.5570  -19.4080 N   0  0  0  0  0  0  0  0  0  0  0  0
   -1.6630   -0.9540  -17.5400 C   0  0  1  0  0  0  0  0  0  0  0  0
   -2.9280   -4.0210  -16.7340 O   0  0  0  0  0  0  0  0  0  0  0  0
   -6.8630   -2.7290  -16.1290 C   0  0  0  0  0  0  0  0  0  0  0  0
   -2.3470   -2.7430  -14.5420 C   0  0  0  0  0  0  0  0  0  0  0  0
   -8.8930   -2.0410  -17.4670 C   0  0  0  0  0  0  0  0  0  0  0  0
   -5.5390   -2.7030  -16.1380 N   0  0  0  0  0  0  0  0  0  0  0  0
   -3.6120   -1.0840  -18.5240 N   0  0  0  0  0  0  0  0  0  0  0  0
    0.4020    0.4770  -18.7630 C   0  0  0  0  0  0  0  0  0  0  0  0
   -7.4690   -2.1650  -17.2080 N   0  0  0  0  0  0  0  0  0  0  0  0
   -2.5980   -2.8250  -16.0840 N   0  0  0  0  0  0  0  0  0  0  0  0
   -6.6700   -1.0490  -19.3300 C   0  0  0  0  0  0  0  0  0  0  0  0
   -0.1770   -1.4190  -17.3000 C   0  0  0  0  0  0  0  0  0  0  0  0
   -0.5800   -0.2280  -19.6610 C   0  0  0  0  0  0  0  0  0  0  0  0
   -1.7650   -0.5780  -18.9630 C   0  0  2  0  0  0  0  0  0  0  0  0
   -5.1900   -2.1100  -17.3460 C   0  0  0  0  0  0  0  0  0  0  0  0
  1 21  2  0
  1 15  1  0
  2 16  1  6
  4 21  1  1
  4  2  1  0
  5 18  1  0
  6 20  1  0
  6 13  1  0
  7 18  1  6
  7  2  1  0
  8 16  1  0
  9  3  1  0
 11 15  1  0
 12  9  2  0
 13  4  1  0
 14  5  1  0
 15  9  1  0
 16 10  1  0
 17  1  1  0
 19 14  1  0
 20 19  1  1
 20  7  1  0
 21 12  1  0
M  END
$$$$

     RDKit          3D

 21 23  0  0  0  0  0  0  0  0999 V2000
   -6.8540   -1.7650  -17.9810 C   0  0  0  0  0  0  0  0  0  0  0  0
   -2.9130   -1.9120  -17.6400 C   0  0  0  0  0  0  0  0  0  0  0  0
   -7.9000   -3.1360  -14.9990 O   0  0  0  0  0  0  0  0  0  0  0  0
   -4.2590   -1.6500  -18.0460 C   0  0  0  0  0  0  0  0  0  0  0  0
    0.4390   -0.7840  -17.9680 C   0  0  0  0  0  0  0  0  0  0  0  0
   -3.2530   -0.3360  -19.7560 C   0  0  0  0  0  0  0  0  0  0  0  0
   -1.8140   -1.2830  -18.0900 C   0  0  0  0  0  0  0  0  0  0  0  0
   -2.5590   -4.0870  -17.0680 O   0  0  0  0  0  0  0  0  0  0  0  0
   -7.2650   -2.7460  -15.9840 C   0  0  0  0  0  0  0  0  0  0  0  0
   -2.2230   -2.5260  -15.5340 O   0  0  0  0  0  0  0  0  0  0  0  0
   -9.1600   -2.0830  -17.2820 C   0  0  0  0  0  0  0  0  0  0  0  0
   -5.6030   -2.7500  -15.8980 S   0  0  0  0  0  0  0  0  0  0  0  0
   -4.3340   -0.8310  -19.1840 C   0  0  0  0  0  0  0  0  0  0  0  0
    0.4670   -0.3160  -19.2850 O   0  0  0  0  0  0  0  0  0  0  0  0
   -7.7260   -2.2230  -17.0860 N   0  0  0  0  0  0  0  0  0  0  0  0
   -2.6300   -2.8880  -16.6880 N   0  0  0  0  0  0  0  0  0  0  0  0
   -7.1050   -1.2160  -19.0550 O   0  0  0  0  0  0  0  0  0  0  0  0
   -0.6210   -1.5590  -17.4870 O   0  0  0  0  0  0  0  0  0  0  0  0
   -0.7650    0.1690  -19.7940 C   0  0  0  0  0  0  0  0  0  0  0  0
   -1.9260   -0.5280  -19.2160 C   0  0  0  0  0  0  0  0  0  0  0  0
   -5.5090   -2.0340  -17.5110 C   0  0  1  0  0  0  0  0  0  0  0  0
  1 21  1  0
  1 15  1  0
  2 16  1  0
  4  2  2  0
  5 18  1  0
  6 20  1  0
  6 13  2  0
  7  2  1  0
  7 18  1  0
  8 16  1  0
  9 12  1  0
  9  3  2  0
 11 15  1  0
 13  4  1  0
 14  5  1  0
 15  9  1  0
 16 10  2  0
 17  1  2  0
 19 14  1  0
 19 20  1  0
 20  7  2  0
 21  4  1  1
 21 12  1  0
M  CHG  2   8  -1  16   1
M  END
$$$$

     RDKit          3D

 21 23  0  0  0  0  0  0  0  0999 V2000
   -6.9470   -1.7460  -18.0280 C   0  0  0  0  0  0  0  0  0  0  0  0
   -3.0560   -1.7140  -17.4570 N   0  0  0  0  0  0  0  0  0  0  0  0
   -7.5960   -3.2870  -14.9210 C   0  0  0  0  0  0  0  0  0  0  0  0
   -4.2280   -1.4710  -18.0430 C   0  0  2  0  0  0  0  0  0  0  0  0
    0.5670   -0.8140  -17.9900 C   0  0  0  0  0  0  0  0  0  0  0  0
   -3.1760   -0.1000  -19.7600 C   0  0  0  0  0  0  0  0  0  0  0  0
   -1.8660   -1.3130  -18.0770 C   0  0  0  0  0  0  0  0  0  0  0  0
   -3.2030   -4.0620  -16.8510 C   0  0  0  0  0  0  0  0  0  0  0  0
   -7.0900   -2.7150  -16.1470 N   0  0  0  0  0  0  0  0  0  0  0  0
   -2.9350   -2.5490  -14.8940 C   0  0  0  0  0  0  0  0  0  0  0  0
   -9.1810   -2.5040  -17.2060 C   0  0  0  0  0  0  0  0  0  0  0  0
   -5.7780   -2.5290  -16.3520 N   0  0  0  0  0  0  0  0  0  0  0  0
   -4.3110   -0.6850  -19.1870 C   0  0  0  0  0  0  0  0  0  0  0  0
    0.2790    0.3290  -18.8700 O   0  0  0  0  0  0  0  0  0  0  0  0
   -7.7500   -2.3380  -17.1410 N   0  0  0  0  0  0  0  0  0  0  0  0
   -2.6950   -2.7110  -16.4250 C   0  0  2  0  0  0  0  0  0  0  0  0
   -7.3200   -1.1670  -19.0090 O   0  0  0  0  0  0  0  0  0  0  0  0
   -0.6370   -1.5240  -17.3760 C   0  0  0  0  0  0  0  0  0  0  0  0
   -0.7140   -0.0130  -19.8440 C   0  0  0  0  0  0  0  0  0  0  0  0
   -1.9460   -0.4260  -19.1850 C   0  0  0  0  0  0  0  0  0  0  0  0
   -5.6080   -1.8840  -17.4830 C   0  0  0  0  0  0  0  0  0  0  0  0
  1 21  1  0
  1 15  1  0
  2 16  1  0
  4 21  1  1
  4  2  1  0
  5 18  1  0
  6 13  2  0
  6 20  1  0
  7  2  1  0
  7 18  1  0
 16  8  1  6
  9  3  1  0
 11 15  1  0
 12  9  1  0
 13  4  1  0
 14  5  1  0
 15  9  1  0
 16 10  1  0
 17  1  2  0
 19 20  1  0
 19 14  1  0
 20  7  2  0
 21 12  2  0
M  END
$$$$

     RDKit          3D

 21 24  0  0  0  0  0  0  0  0999 V2000
   -6.1120   -1.8080  -17.8080 C   0  0  0  0  0  0  0  0  0  0  0  0
   -2.6250   -1.9140  -17.3840 C   0  0  0  0  0  0  0  0  0  0  0  0
   -7.8040   -3.2200  -15.0540 C   0  0  0  0  0  0  0  0  0  0  0  0
   -3.8940   -1.6680  -17.8210 C   0  0  0  0  0  0  0  0  0  0  0  0
    0.5170   -0.2270  -17.8480 C   0  0  0  0  0  0  0  0  0  0  0  0
   -3.1510   -0.5130  -19.7570 C   0  0  0  0  0  0  0  0  0  0  0  0
   -1.5770   -1.3990  -17.9510 C   0  0  0  0  0  0  0  0  0  0  0  0
   -2.4060   -4.0360  -16.7360 O   0  0  0  0  0  0  0  0  0  0  0  0
   -6.8220   -2.6700  -16.1300 C   0  0  0  0  0  0  0  0  0  0  0  0
   -1.8220   -2.2140  -15.4850 O   0  0  0  0  0  0  0  0  0  0  0  0
   -8.6160   -1.8810  -17.4590 C   0  0  0  0  0  0  0  0  0  0  0  0
   -5.4070   -2.6730  -15.9710 C   0  0  0  0  0  0  0  0  0  0  0  0
   -4.1590   -1.0030  -19.0190 C   0  0  0  0  0  0  0  0  0  0  0  0
    0.4250    0.1900  -19.2600 C   0  0  0  0  0  0  0  0  0  0  0  0
   -7.2350   -2.1510  -17.2140 N   0  0  0  0  0  0  0  0  0  0  0  0
   -2.3090   -2.7140  -16.2950 N   0  0  0  0  0  0  0  0  0  0  0  0
   -5.7410   -0.8780  -19.2130 S   0  0  0  0  0  0  0  0  0  0  0  0
   -0.1170   -1.4510  -17.6890 C   0  0  0  0  0  0  0  0  0  0  0  0
   -0.7160    0.2830  -19.8860 C   0  0  0  0  0  0  0  0  0  0  0  0
   -1.7910   -0.5320  -19.2440 C   0  0  0  0  0  0  0  0  0  0  0  0
   -5.0270   -2.0640  -17.1710 C   0  0  0  0  0  0  0  0  0  0  0  0
  1 15  1  0
  1 21  2  0
  2 16  1  0
  4  2  2  0
  4 21  1  0
  5 18  1  0
  6 20  1  0
  6 13  2  0
  7 18  1  0
  7  2  1  0
  8 16  1  0
  9 12  2  0
  9  3  1  0
 11 15  1  0
 13  4  1  0
 14  5  1  0
 15  9  1  0
 16 10  2  0
 17 13  1  0
 17  1  1  0
 19 14  1  0
 19 20  1  0
 20  7  2  0
 21 12  1  0
M  CHG  2   8  -1  16   1
M  END
$$$$

     RDKit          3D

 21 23  0  0  0  0  0  0  0  0999 V2000
   -6.7740   -1.8040  -17.9890 C   0  0  0  0  0  0  0  0  0  0  0  0
   -2.9300   -1.9140  -17.5760 C   0  0  0  0  0  0  0  0  0  0  0  0
   -7.4360   -3.2690  -15.0610 O   0  0  0  0  0  0  0  0  0  0  0  0
   -4.0960   -1.5200  -18.1570 C   0  0  0  0  0  0  0  0  0  0  0  0
    0.6500   -0.9920  -17.8850 C   0  0  0  0  0  0  0  0  0  0  0  0
   -2.9260   -0.2040  -19.8800 C   0  0  0  0  0  0  0  0  0  0  0  0
   -1.7390   -1.1760  -17.9610 C   0  0  0  0  0  0  0  0  0  0  0  0
   -2.5350   -4.3650  -17.2120 C   0  0  0  0  0  0  0  0  0  0  0  0
   -6.9990   -2.8070  -16.0520 C   0  0  0  0  0  0  0  0  0  0  0  0
   -2.6790   -2.8540  -15.1350 C   0  0  0  0  0  0  0  0  0  0  0  0
   -9.1390   -2.2050  -17.3040 C   0  0  0  0  0  0  0  0  0  0  0  0
   -5.4940   -2.5560  -16.3980 N   0  0  0  0  0  0  0  0  0  0  0  0
   -4.1840   -0.7580  -19.3550 C   0  0  0  0  0  0  0  0  0  0  0  0
    0.6120    0.0460  -18.8830 C   0  0  0  0  0  0  0  0  0  0  0  0
   -7.7050   -2.2850  -17.1130 N   0  0  0  0  0  0  0  0  0  0  0  0
   -2.8050   -2.9300  -16.6280 C   0  0  1  0  0  0  0  0  0  0  0  0
   -7.2640   -1.2780  -19.0890 F   0  0  0  0  0  0  0  0  0  0  0  0
   -0.5160   -1.4200  -17.2840 C   0  0  0  0  0  0  0  0  0  0  0  0
   -0.6050    0.3460  -19.4480 C   0  0  0  0  0  0  0  0  0  0  0  0
   -1.7770   -0.3320  -19.1290 C   0  0  0  0  0  0  0  0  0  0  0  0
   -5.4080   -1.9410  -17.5240 C   0  0  0  0  0  0  0  0  0  0  0  0
  1 17  1  0
  1 21  1  0
  1 15  1  0
  2 16  1  0
  4  2  2  0
  4 21  1  0
  5 18  1  0
  6 13  2  0
  6 20  1  0
  7  2  1  0
  7 18  2  0
 16  8  1  6
  9  3  2  0
 11 15  1  0
 12  9  1  0
 13  4  1  0
 14  5  2  0
 15  9  1  0
 16 10  1  0
 19 20  2  0
 19 14  1  0
 20  7  1  0
 21 12  2  0
M  END
$$$$

     RDKit          3D

 21 23  0  0  0  0  0  0  0  0999 V2000
   -6.5930   -1.6300  -17.9680 C   0  0  0  0  0  0  0  0  0  0  0  0
   -2.7330   -1.5280  -17.1540 C   0  0  2  0  0  0  0  0  0  0  0  0
   -7.3200   -3.2930  -15.0290 N   0  0  0  0  0  0  0  0  0  0  0  0
   -3.9920   -1.4610  -17.9640 C   0  0  2  0  0  0  0  0  0  0  0  0
    0.9000   -0.9620  -17.6730 O   0  0  0  0  0  0  0  0  0  0  0  0
   -2.7840    0.1960  -19.4770 C   0  0  0  0  0  0  0  0  0  0  0  0
   -1.5230   -1.4380  -18.0580 C   0  0  2  0  0  0  0  0  0  0  0  0
   -2.8080   -4.0510  -16.8260 C   0  0  0  0  0  0  0  0  0  0  0  0
   -6.7320   -2.6850  -16.0410 C   0  0  0  0  0  0  0  0  0  0  0  0
   -2.8570   -2.5730  -14.8600 C   0  0  0  0  0  0  0  0  0  0  0  0
   -8.9030   -2.2440  -17.2540 C   0  0  0  0  0  0  0  0  0  0  0  0
   -5.4440   -2.4630  -16.3010 N   0  0  0  0  0  0  0  0  0  0  0  0
   -3.8090   -0.7950  -19.2030 C   0  0  0  0  0  0  0  0  0  0  0  0
    0.9900    0.0260  -18.6870 C   0  0  0  0  0  0  0  0  0  0  0  0
   -7.4390   -2.1510  -17.1040 N   0  0  0  0  0  0  0  0  0  0  0  0
   -2.7540   -2.7130  -16.3090 N   0  0  0  0  0  0  0  0  0  0  0  0
   -7.0090   -0.8350  -19.2630 C   0  0  0  0  0  0  0  0  0  0  0  0
   -0.3170   -1.5000  -17.0890 C   0  0  0  0  0  0  0  0  0  0  0  0
   -0.2710    0.1400  -19.5560 C   0  0  0  0  0  0  0  0  0  0  0  0
   -1.4430   -0.1500  -18.8400 C   0  0  1  0  0  0  0  0  0  0  0  0
   -5.3020   -1.8100  -17.5040 C   0  0  0  0  0  0  0  0  0  0  0  0
  1 21  2  0
  1 15  1  0
  2 16  1  6
  4 21  1  1
  4  2  1  0
  5 18  1  0
  6 13  1  0
 20  6  1  6
  7  2  1  0
  7 18  1  1
  8 16  1  0
  9  3  1  0
 11 15  1  0
 12  9  2  0
 13  4  1  0
 14  5  1  0
 15  9  1  0
 16 10  1  0
 17  1  1  0
 19 14  1  0
 20 19  1  0
 20  7  1  0
 21 12  1  0
M  END
$$$$

     RDKit          3D

 21 23  0  0  0  0  0  0  0  0999 V2000
   -6.6040   -1.6080  -18.1640 C   0  0  0  0  0  0  0  0  0  0  0  0
   -2.8620   -1.7510  -17.2550 C   0  0  0  0  0  0  0  0  0  0  0  0
   -7.3590   -3.2180  -15.0380 C   0  0  0  0  0  0  0  0  0  0  0  0
   -4.0260   -1.4560  -17.9900 C   0  0  0  0  0  0  0  0  0  0  0  0
    0.7830   -0.4990  -17.6410 C   0  0  0  0  0  0  0  0  0  0  0  0
   -2.8380   -0.3790  -19.7340 C   0  0  0  0  0  0  0  0  0  0  0  0
   -1.6520   -1.1810  -17.7650 C   0  0  0  0  0  0  0  0  0  0  0  0
   -3.3190   -3.8580  -16.4240 O   0  0  0  0  0  0  0  0  0  0  0  0
   -6.7740   -2.5470  -16.2540 C   0  0  0  0  0  0  0  0  0  0  0  0
   -2.9830   -2.2790  -14.7230 C   0  0  0  0  0  0  0  0  0  0  0  0
   -8.9730   -1.9950  -17.4350 C   0  0  0  0  0  0  0  0  0  0  0  0
   -5.5760   -2.3170  -16.3890 N   0  0  0  0  0  0  0  0  0  0  0  0
   -4.0560   -0.7780  -19.2460 C   0  0  0  0  0  0  0  0  0  0  0  0
    0.3280    0.6090  -18.3460 O   0  0  0  0  0  0  0  0  0  0  0  0
   -7.4910   -2.1090  -17.2730 N   0  0  0  0  0  0  0  0  0  0  0  0
   -2.9970   -2.7000  -16.2000 C   0  0  0  0  0  0  0  0  0  0  0  0
   -6.8560   -1.1130  -19.2530 O   0  0  0  0  0  0  0  0  0  0  0  0
   -0.3740   -1.3500  -17.0220 C   0  0  0  0  0  0  0  0  0  0  0  0
   -0.5880    0.4840  -19.3110 C   0  0  0  0  0  0  0  0  0  0  0  0
   -1.6920   -0.4890  -18.9630 C   0  0  0  0  0  0  0  0  0  0  0  0
   -5.3150   -1.8110  -17.5660 C   0  0  1  0  0  0  0  0  0  0  0  0
  1 21  1  0
  1 15  1  0
  2 16  1  0
  4  2  2  0
  5 18  1  0
  6 13  2  0
  6 20  1  0
  7  2  1  0
  7 18  1  0
  8 16  2  0
  9  3  1  0
 11 15  1  0
 12  9  2  0
 13  4  1  0
 14  5  1  0
 15  9  1  0
 16 10  1  0
 17  1  2  0
 19 20  1  0
 19 14  1  0
 20  7  2  0
 21  4  1  1
 21 12  1  0
M  END
$$$$

     RDKit          3D

 21 23  0  0  0  0  0  0  0  0999 V2000
   -6.6470   -1.5940  -18.2920 C   0  0  1  0  0  0  0  0  0  0  0  0
   -2.8120   -1.9460  -17.5600 C   0  0  0  0  0  0  0  0  0  0  0  0
   -7.6990   -3.1170  -15.2710 C   0  0  0  0  0  0  0  0  0  0  0  0
   -3.9900   -1.4490  -18.1570 C   0  0  0  0  0  0  0  0  0  0  0  0
    0.8820   -0.9650  -17.7160 C   0  0  0  0  0  0  0  0  0  0  0  0
   -2.8090   -0.0750  -19.7920 C   0  0  0  0  0  0  0  0  0  0  0  0
   -1.5770   -1.4550  -18.0670 C   0  0  0  0  0  0  0  0  0  0  0  0
   -3.1230   -4.2820  -16.7370 C   0  0  0  0  0  0  0  0  0  0  0  0
   -6.9830   -2.5000  -16.3040 N   0  0  0  0  0  0  0  0  0  0  0  0
   -2.2690   -2.6070  -15.0770 C   0  0  0  0  0  0  0  0  0  0  0  0
   -9.0390   -2.1370  -17.6270 C   0  0  0  0  0  0  0  0  0  0  0  0
   -5.6370   -2.2360  -16.4630 N   0  0  0  0  0  0  0  0  0  0  0  0
   -3.9830   -0.6000  -19.2820 C   0  0  0  0  0  0  0  0  0  0  0  0
    0.7210    0.1640  -18.6520 C   0  0  0  0  0  0  0  0  0  0  0  0
   -7.6190   -2.1260  -17.4280 N   0  0  0  0  0  0  0  0  0  0  0  0
   -2.8840   -2.8200  -16.3980 N   0  0  0  0  0  0  0  0  0  0  0  0
   -7.0430   -0.8920  -19.6010 C   0  0  0  0  0  0  0  0  0  0  0  0
   -0.1910   -1.9170  -17.5520 C   0  0  0  0  0  0  0  0  0  0  0  0
   -0.3520   -0.0190  -19.7230 C   0  0  0  0  0  0  0  0  0  0  0  0
   -1.6350   -0.4910  -19.0440 C   0  0  0  0  0  0  0  0  0  0  0  0
   -5.4000   -1.7540  -17.6210 C   0  0  0  0  0  0  0  0  0  0  0  0
  1 17  1  1
  1 21  1  0
  1 15  1  0
  2 16  1  0
  4 21  1  0
  4  2  2  0
  5 18  1  0
  6 13  2  0
  6 20  1  0
  7  2  1  0
  7 18  1  0
  8 16  1  0
  9  3  1  0
 11 15  1  0
 12  9  1  0
 13  4  1  0
 14  5  1  0
 15  9  1  0
 16 10  1  0
 19 20  1  0
 19 14  1  0
 20  7  2  0
 21 12  2  0
M  END
$$$$

     RDKit          3D

 21 23  0  0  0  0  0  0  0  0999 V2000
   -6.9390   -1.8430  -18.0010 C   0  0  0  0  0  0  0  0  0  0  0  0
   -3.0030   -2.0630  -17.5760 C   0  0  0  0  0  0  0  0  0  0  0  0
   -7.8030   -3.1310  -14.9030 O   0  0  0  0  0  0  0  0  0  0  0  0
   -4.3100   -1.6590  -18.0030 C   0  0  0  0  0  0  0  0  0  0  0  0
    0.2900   -0.4790  -17.6910 C   0  0  0  0  0  0  0  0  0  0  0  0
   -3.2370   -0.2800  -19.5820 C   0  0  0  0  0  0  0  0  0  0  0  0
   -1.8380   -1.3620  -18.0920 C   0  0  0  0  0  0  0  0  0  0  0  0
   -2.7340   -4.3160  -16.9570 O   0  0  0  0  0  0  0  0  0  0  0  0
   -7.2670   -2.7530  -15.9120 C   0  0  0  0  0  0  0  0  0  0  0  0
   -2.4600   -2.7650  -15.4150 O   0  0  0  0  0  0  0  0  0  0  0  0
   -9.3630   -2.3690  -17.2880 C   0  0  0  0  0  0  0  0  0  0  0  0
   -5.5710   -2.6850  -16.0280 S   0  0  0  0  0  0  0  0  0  0  0  0
   -4.3660   -0.8610  -19.0880 C   0  0  0  0  0  0  0  0  0  0  0  0
    0.4280   -0.0360  -19.0280 C   0  0  0  0  0  0  0  0  0  0  0  0
   -7.8900   -2.3400  -17.1150 N   0  0  0  0  0  0  0  0  0  0  0  0
   -2.7980   -3.1170  -16.5940 C   0  0  0  0  0  0  0  0  0  0  0  0
   -7.2610   -1.2980  -19.0910 O   0  0  0  0  0  0  0  0  0  0  0  0
   -0.5860   -1.5740  -17.4190 O   0  0  0  0  0  0  0  0  0  0  0  0
   -0.9230    0.3250  -19.6660 C   0  0  0  0  0  0  0  0  0  0  0  0
   -1.9730   -0.4600  -19.0840 C   0  0  0  0  0  0  0  0  0  0  0  0
   -5.5490   -2.0600  -17.4560 C   0  0  1  0  0  0  0  0  0  0  0  0
  1 21  1  0
  1 15  1  0
  2 16  1  0
  4  2  2  0
  5 18  1  0
  6 13  2  0
  6 20  1  0
  7  2  1  0
  7 18  1  0
  8 16  2  0
  9  3  2  0
 11 15  1  0
 12  9  1  0
 13  4  1  0
 14  5  1  0
 15  9  1  0
 16 10  1  0
 17  1  2  0
 19 20  1  0
 19 14  1  0
 20  7  2  0
 21  4  1  1
 21 12  1  0
M  END
$$$$

     RDKit          3D

 21 23  0  0  0  0  0  0  0  0999 V2000
   -6.8470   -1.6680  -18.0730 C   0  0  0  0  0  0  0  0  0  0  0  0
   -2.8760   -1.7850  -17.3810 C   0  0  0  0  0  0  0  0  0  0  0  0
   -7.6340   -3.3810  -14.8450 C   0  0  0  0  0  0  0  0  0  0  0  0
   -4.1530   -1.5080  -17.9670 C   0  0  0  0  0  0  0  0  0  0  0  0
    0.7580   -0.8570  -17.8070 C   0  0  0  0  0  0  0  0  0  0  0  0
   -2.9310   -0.2570  -19.6860 N   0  0  0  0  0  0  0  0  0  0  0  0
   -1.6280   -1.3420  -17.8590 C   0  0  0  0  0  0  0  0  0  0  0  0
   -2.8200   -3.9940  -16.7030 C   0  0  0  0  0  0  0  0  0  0  0  0
   -7.0000   -2.7390  -16.0960 N   0  0  0  0  0  0  0  0  0  0  0  0
   -2.8430   -2.4240  -14.9260 C   0  0  0  0  0  0  0  0  0  0  0  0
   -9.2000   -2.0710  -17.2390 C   0  0  0  0  0  0  0  0  0  0  0  0
   -5.6530   -2.5670  -16.2060 N   0  0  0  0  0  0  0  0  0  0  0  0
   -4.0580   -0.7690  -19.1490 C   0  0  0  0  0  0  0  0  0  0  0  0
    0.5230    0.1590  -18.6310 N   0  0  0  0  0  0  0  0  0  0  0  0
   -7.7520   -2.1840  -17.1070 N   0  0  0  0  0  0  0  0  0  0  0  0
   -2.7710   -2.6210  -16.3850 N   0  0  0  0  0  0  0  0  0  0  0  0
   -7.0850   -1.1470  -19.1030 O   0  0  0  0  0  0  0  0  0  0  0  0
   -0.3380   -1.5570  -17.2800 C   0  0  0  0  0  0  0  0  0  0  0  0
   -0.4700    0.1070  -19.5350 C   0  0  0  0  0  0  0  0  0  0  0  0
   -1.6940   -0.4510  -18.9830 C   0  0  0  0  0  0  0  0  0  0  0  0
   -5.4730   -1.9700  -17.3970 C   0  0  0  0  0  0  0  0  0  0  0  0
  1 21  1  0
  1 15  1  0
  2 16  1  0
  4 21  1  0
  4  2  2  0
  5 18  2  0
  6 13  2  0
  6 20  1  0
  7  2  1  0
  7 18  1  0
  8 16  1  0
  9  3  1  0
 11 15  1  0
 12  9  1  0
 13  4  1  0
 14  5  1  0
 15  9  1  0
 16 10  1  0
 17  1  2  0
 19 20  1  0
 19 14  1  0
 20  7  2  0
 21 12  2  0
M  END
$$$$

     RDKit          3D

 21 24  0  0  0  0  0  0  0  0999 V2000
   -6.3960   -1.7350  -18.0650 C   0  0  0  0  0  0  0  0  0  0  0  0
   -2.7410   -2.1160  -17.6050 C   0  0  1  0  0  0  0  0  0  0  0  0
   -7.8240   -3.3150  -15.1770 C   0  0  0  0  0  0  0  0  0  0  0  0
   -3.9520   -1.7980  -18.0540 N   0  0  0  0  0  0  0  0  0  0  0  0
    0.4360   -0.1600  -17.8030 C   0  0  0  0  0  0  0  0  0  0  0  0
   -2.8860   -0.7000  -19.7210 C   0  0  0  0  0  0  0  0  0  0  0  0
   -1.7630   -1.4480  -18.2790 C   0  0  1  0  0  0  0  0  0  0  0  0
   -2.7050   -4.2450  -16.6320 O   0  0  0  0  0  0  0  0  0  0  0  0
   -7.1520   -2.6450  -16.0790 C   0  0  0  0  0  0  0  0  0  0  0  0
   -1.8460   -2.3770  -15.0950 C   0  0  0  0  0  0  0  0  0  0  0  0
   -8.9330   -1.8640  -17.5820 C   0  0  0  0  0  0  0  0  0  0  0  0
   -5.4440   -2.7940  -15.9940 S   0  0  0  0  0  0  0  0  0  0  0  0
   -4.0970   -0.9930  -19.0330 C   0  0  1  0  0  0  0  0  0  0  0  0
    0.5340    0.1390  -19.2630 N   0  0  0  0  0  0  0  0  0  0  0  0
   -7.5320   -2.0260  -17.2260 N   0  0  0  0  0  0  0  0  0  0  0  0
   -2.3220   -2.9490  -16.5010 C   0  0  2  0  0  0  0  0  0  0  0  0
   -5.7640   -1.0390  -19.4970 S   0  0  0  0  0  0  0  0  0  0  0  0
   -0.2570   -1.5200  -17.7320 C   0  0  0  0  0  0  0  0  0  0  0  0
   -0.8570    0.3450  -19.7890 C   0  0  0  0  0  0  0  0  0  0  0  0
   -1.6440   -0.9970  -19.5110 C   0  0  2  0  0  0  0  0  0  0  0  0
   -5.2590   -2.1130  -17.4340 C   0  0  0  0  0  0  0  0  0  0  0  0
  1 21  2  0
  1 15  1  0
  2 16  1  0
  2  4  1  1
  4 21  1  0
  5 18  1  0
 20  6  1  1
  7 18  1  6
  7  2  1  0
  8 16  1  0
  9 12  1  0
  9  3  2  0
 11 15  1  0
 13  6  1  6
 13  4  1  0
 14  5  1  0
 15  9  1  0
 16 10  1  1
 17 13  1  0
 17  1  1  0
 19 14  1  0
 20 19  1  0
 20  7  1  0
 21 12  1  0
M  END
$$$$

     RDKit          3D

 21 23  0  0  0  0  0  0  0  0999 V2000
   -2.1600    0.6580  -20.0810 C   0  0  0  0  0  0  0  0  0  0  0  0
   -3.2910   -0.7840  -18.8250 C   0  0  0  0  0  0  0  0  0  0  0  0
   -2.1420   -0.3940  -18.1430 C   0  0  0  0  0  0  0  0  0  0  0  0
   -8.5930   -0.8180  -18.3220 O   0  0  0  0  0  0  0  0  0  0  0  0
   -3.2810   -0.1030  -20.0840 C   0  0  0  0  0  0  0  0  0  0  0  0
   -9.7260   -4.4620  -17.6240 O   0  0  0  0  0  0  0  0  0  0  0  0
   -7.5890   -1.7630  -18.2650 C   0  0  2  0  0  0  0  0  0  0  0  0
   -8.1270   -3.0830  -18.7110 C   0  0  0  0  0  0  0  0  0  0  0  0
   -8.1590   -3.8430  -15.0400 C   0  0  0  0  0  0  0  0  0  0  0  0
   -4.2150   -1.7350  -18.3090 C   0  0  0  0  0  0  0  0  0  0  0  0
   -3.8530   -2.3700  -17.1250 C   0  0  0  0  0  0  0  0  0  0  0  0
   -8.8410   -3.6730  -17.5750 C   0  0  0  0  0  0  0  0  0  0  0  0
   -2.6210   -2.0760  -16.4770 C   0  0  0  0  0  0  0  0  0  0  0  0
   -9.4850   -2.1070  -15.9200 F   0  0  0  0  0  0  0  0  0  0  0  0
   -7.2150   -2.1630  -16.7000 C   0  0  0  0  0  0  0  0  0  0  0  0
   -8.4250   -2.9570  -16.3130 C   0  0  1  0  0  0  0  0  0  0  0  0
   -1.7660   -1.1000  -17.0280 C   0  0  0  0  0  0  0  0  0  0  0  0
   -1.4530    0.5360  -18.8420 O   0  0  0  0  0  0  0  0  0  0  0  0
   -2.0200   -2.8810  -15.0060 Cl  0  0  0  0  0  0  0  0  0  0  0  0
   -5.3900   -2.0570  -19.0780 N   0  0  0  0  0  0  0  0  0  0  0  0
   -6.5060   -1.2240  -19.0820 C   0  0  0  0  0  0  0  0  0  0  0  0
  1 18  1  0
  2 10  2  0
  2  3  1  0
  3 17  2  0
  5  1  2  0
  5  2  1  0
  6 12  2  0
  7  4  1  1
  7 15  1  0
  8  7  1  0
  8 12  1  0
 10 11  1  0
 11 13  2  0
 12 16  1  0
 13 19  1  0
 15 16  1  0
 16 14  1  0
 16  9  1  1
 17 13  1  0
 18  3  1  0
 20 10  1  0
 21 20  1  0
 21  7  1  0
M  END
$$$$

     RDKit          3D

 21 23  0  0  0  0  0  0  0  0999 V2000
   -2.0070    0.4760  -19.8930 C   0  0  0  0  0  0  0  0  0  0  0  0
   -3.2330   -0.8630  -18.7730 C   0  0  0  0  0  0  0  0  0  0  0  0
   -2.0960   -0.5630  -18.0960 C   0  0  0  0  0  0  0  0  0  0  0  0
   -7.9060   -0.2150  -18.0800 C   0  0  0  0  0  0  0  0  0  0  0  0
   -3.1920   -0.2220  -19.9580 N   0  0  0  0  0  0  0  0  0  0  0  0
   -9.8170   -4.3420  -17.5950 N   0  0  0  0  0  0  0  0  0  0  0  0
   -7.3830   -1.7260  -18.1170 C   0  0  2  0  0  0  0  0  0  0  0  0
   -7.6640   -2.7090  -19.4680 C   0  0  0  0  0  0  0  0  0  0  0  0
   -8.0170   -3.0790  -15.0100 F   0  0  0  0  0  0  0  0  0  0  0  0
   -4.1210   -1.8570  -18.2110 C   0  0  0  0  0  0  0  0  0  0  0  0
   -3.9850   -2.2630  -16.9810 C   0  0  0  0  0  0  0  0  0  0  0  0
   -9.2500   -3.5620  -16.7500 C   0  0  0  0  0  0  0  0  0  0  0  0
   -2.7950   -1.9110  -16.2930 C   0  0  1  0  0  0  0  0  0  0  0  0
   -9.3290   -1.5940  -15.8320 F   0  0  0  0  0  0  0  0  0  0  0  0
   -7.0860   -2.2880  -16.7310 C   0  0  0  0  0  0  0  0  0  0  0  0
   -8.4930   -2.6080  -15.9700 C   0  0  1  0  0  0  0  0  0  0  0  0
   -2.0260   -0.9160  -16.8740 N   0  0  0  0  0  0  0  0  0  0  0  0
   -1.3210    0.3460  -18.7140 N   0  0  0  0  0  0  0  0  0  0  0  0
   -2.4290   -2.4560  -14.8990 C   0  0  0  0  0  0  0  0  0  0  0  0
   -5.2600   -1.9080  -19.0450 N   0  0  0  0  0  0  0  0  0  0  0  0
   -6.5410   -1.9310  -19.2300 C   0  0  2  0  0  0  0  0  0  0  0  0
  1 18  2  0
  2 10  1  0
  2  3  1  0
  3 17  2  0
  5  1  1  0
  5  2  2  0
  6 12  1  0
  7  4  1  1
  7 15  1  0
  8 21  1  0
  8  7  1  0
 10 11  2  0
 11 13  1  0
 12 16  1  0
 13 19  1  1
 15 16  1  0
 16 14  1  1
 16  9  1  0
 17 13  1  0
 18  3  1  0
 20 10  1  0
 21 20  1  1
 21  7  1  0
M  END
$$$$

     RDKit          3D

 21 23  0  0  0  0  0  0  0  0999 V2000
   -2.5950    0.7640  -20.2220 N   0  0  0  0  0  0  0  0  0  0  0  0
   -3.5890   -0.8040  -19.1150 C   0  0  0  0  0  0  0  0  0  0  0  0
   -2.2860   -0.4600  -18.5280 C   0  0  0  0  0  0  0  0  0  0  0  0
   -8.4880   -0.5300  -17.6850 C   0  0  0  0  0  0  0  0  0  0  0  0
   -3.6030   -0.0710  -20.2480 N   0  0  0  0  0  0  0  0  0  0  0  0
   -9.9180   -4.6510  -17.2450 C   0  0  0  0  0  0  0  0  0  0  0  0
   -7.5810   -1.6940  -17.9390 C   0  0  2  0  0  0  0  0  0  0  0  0
   -8.2360   -2.9980  -18.4420 C   0  0  0  0  0  0  0  0  0  0  0  0
   -8.1200   -4.0240  -15.3100 C   0  0  0  0  0  0  0  0  0  0  0  0
   -4.3920   -1.6590  -18.5260 C   0  0  0  0  0  0  0  0  0  0  0  0
   -4.0090   -2.2740  -17.3250 C   0  0  0  0  0  0  0  0  0  0  0  0
   -9.2400   -3.2930  -17.4320 C   0  0  2  0  0  0  0  0  0  0  0  0
   -2.6470   -1.9600  -16.8470 C   0  0  0  0  0  0  0  0  0  0  0  0
   -9.5680   -2.0770  -15.4800 F   0  0  0  0  0  0  0  0  0  0  0  0
   -7.3050   -2.2530  -16.5550 O   0  0  0  0  0  0  0  0  0  0  0  0
   -8.5270   -2.8660  -16.1290 C   0  0  1  0  0  0  0  0  0  0  0  0
   -1.7890   -1.2590  -17.5660 C   0  0  0  0  0  0  0  0  0  0  0  0
   -1.7850    0.4960  -19.1610 N   0  0  0  0  0  0  0  0  0  0  0  0
   -2.1740   -2.6560  -15.2690 Cl  0  0  0  0  0  0  0  0  0  0  0  0
   -5.6610   -2.1090  -19.1230 N   0  0  0  0  0  0  0  0  0  0  0  0
   -6.6420   -1.0870  -18.9470 C   0  0  0  0  0  0  0  0  0  0  0  0
  1 18  1  0
  2  5  1  0
  2  3  1  0
  2 10  1  0
  3 17  1  0
  5  1  2  0
  7  4  1  1
  7 15  1  0
  8  7  1  0
  8 12  1  0
 10 11  2  0
 11 13  1  0
 12  6  1  1
 12 16  1  0
 13 19  1  0
 15 16  1  0
 16 14  1  0
 16  9  1  1
 17 13  2  0
 18  3  2  0
 20 21  1  0
 20 10  1  0
 21  7  1  0
M  END
$$$$

     RDKit          3D

 21 21  0  0  0  0  0  0  0  0999 V2000
   -2.4150    0.5780  -20.0720 C   0  0  0  0  0  0  0  0  0  0  0  0
   -3.7070   -0.7090  -18.7750 C   0  0  1  0  0  0  0  0  0  0  0  0
   -2.5810   -0.4050  -18.1760 C   0  0  0  0  0  0  0  0  0  0  0  0
   -7.8090   -0.2320  -17.8560 C   0  0  0  0  0  0  0  0  0  0  0  0
   -3.8590   -0.1870  -20.2310 S   0  0  0  0  0  0  0  0  0  0  0  0
   -9.9700   -4.4370  -17.4150 C   0  0  0  0  0  0  0  0  0  0  0  0
   -7.3900   -1.4760  -17.9530 C   0  0  0  0  0  0  0  0  0  0  0  0
   -7.3190   -1.8150  -19.2500 C   0  0  0  0  0  0  0  0  0  0  0  0
   -7.3820   -3.9150  -15.2930 O   0  0  0  0  0  0  0  0  0  0  0  0
   -4.2890   -1.8620  -18.2820 C   0  0  1  0  0  0  0  0  0  0  0  0
   -4.1000   -2.3370  -17.1790 C   0  0  0  0  0  0  0  0  0  0  0  0
   -9.2430   -3.4910  -16.7230 N   0  0  0  0  0  0  0  0  0  0  0  0
   -2.9470   -1.9010  -16.5750 C   0  0  0  0  0  0  0  0  0  0  0  0
   -9.8570   -2.0270  -16.3350 C   0  0  0  0  0  0  0  0  0  0  0  0
   -6.9890   -2.1970  -16.7340 C   0  0  0  0  0  0  0  0  0  0  0  0
   -7.8920   -3.3510  -16.5070 C   0  0  0  0  0  0  0  0  0  0  0  0
   -2.2340   -0.9210  -17.0510 C   0  0  0  0  0  0  0  0  0  0  0  0
   -1.9990    0.4170  -18.8610 N   0  0  0  0  0  0  0  0  0  0  0  0
   -2.2420   -2.5470  -15.1070 Cl  0  0  0  0  0  0  0  0  0  0  0  0
   -5.4600   -2.3030  -18.9350 N   0  0  0  0  0  0  0  0  0  0  0  0
   -6.3920   -1.4840  -18.9220 C   0  0  0  0  0  0  0  0  0  0  0  0
  1 18  1  0
  2  5  1  6
  2 10  1  0
  2  3  1  0
  3 17  1  0
  5  1  1  0
  6 12  1  0
  7  4  1  0
  8 21  1  0
  8  7  1  0
 10 20  1  1
 10 11  1  0
 11 13  1  0
 12 16  1  0
 12 14  1  0
 13 19  1  0
 15 16  1  0
 16  9  2  0
 17 13  2  0
 18  3  2  0
 20 21  1  0
M  END
$$$$

     RDKit          3D

 21 23  0  0  0  0  0  0  0  0999 V2000
   -2.4260    0.5270  -19.9640 C   0  0  0  0  0  0  0  0  0  0  0  0
   -3.4180   -0.8760  -18.8020 N   0  0  0  0  0  0  0  0  0  0  0  0
   -2.1530   -0.6560  -18.3670 C   0  0  0  0  0  0  0  0  0  0  0  0
   -8.5420   -0.8210  -17.9990 F   0  0  0  0  0  0  0  0  0  0  0  0
   -3.5730   -0.2210  -19.9370 N   0  0  0  0  0  0  0  0  0  0  0  0
   -9.6600   -4.7540  -17.2140 N   0  0  0  0  0  0  0  0  0  0  0  0
   -7.6500   -1.9060  -17.9840 C   0  0  2  0  0  0  0  0  0  0  0  0
   -8.3350   -3.1420  -18.4890 C   0  0  0  0  0  0  0  0  0  0  0  0
   -8.3010   -3.6460  -14.9200 F   0  0  0  0  0  0  0  0  0  0  0  0
   -4.2450   -1.7580  -18.1920 C   0  0  0  0  0  0  0  0  0  0  0  0
   -3.9220   -2.1420  -16.9190 C   0  0  0  0  0  0  0  0  0  0  0  0
   -8.8940   -3.6970  -17.2150 C   0  0  0  0  0  0  0  0  0  0  0  0
   -2.5500   -1.9530  -16.4580 C   0  0  0  0  0  0  0  0  0  0  0  0
   -9.6890   -2.3490  -15.6000 F   0  0  0  0  0  0  0  0  0  0  0  0
   -7.3320   -2.1290  -16.5100 C   0  0  0  0  0  0  0  0  0  0  0  0
   -8.5230   -2.9290  -16.0410 C   0  0  1  0  0  0  0  0  0  0  0  0
   -1.6740   -1.3540  -17.3000 C   0  0  0  0  0  0  0  0  0  0  0  0
   -1.5790    0.2700  -19.0830 N   0  0  0  0  0  0  0  0  0  0  0  0
   -2.0510   -2.3170  -15.1410 C   0  0  0  0  0  0  0  0  0  0  0  0
   -5.3970   -2.3020  -18.7550 N   0  0  0  0  0  0  0  0  0  0  0  0
   -6.5520   -1.5330  -18.9660 C   0  0  0  0  0  0  0  0  0  0  0  0
  1  5  2  0
  1 18  1  0
  2  3  1  0
  2 10  1  0
  3 17  1  0
  5  2  1  0
  7  4  1  1
  7 15  1  0
  8  7  1  0
  8 12  1  0
 10 11  2  0
 11 13  1  0
 12  6  2  0
 12 16  1  0
 13 19  1  0
 15 16  1  0
 16 14  1  1
 16  9  1  0
 17 13  2  0
 18  3  2  0
 20 10  1  0
 21 20  1  0
 21  7  1  0
M  END
$$$$

     RDKit          3D

 21 23  0  0  0  0  0  0  0  0999 V2000
   -2.3640    0.5610  -19.7790 C   0  0  0  0  0  0  0  0  0  0  0  0
   -3.2650   -0.9750  -18.7060 C   0  0  0  0  0  0  0  0  0  0  0  0
   -2.1030   -0.6480  -18.1040 C   0  0  0  0  0  0  0  0  0  0  0  0
   -8.0470   -0.7920  -17.8390 O   0  0  0  0  0  0  0  0  0  0  0  0
   -3.4330   -0.2110  -19.7860 N   0  0  0  0  0  0  0  0  0  0  0  0
   -9.2570   -4.3260  -17.9330 O   0  0  0  0  0  0  0  0  0  0  0  0
   -7.2750   -1.9580  -18.0600 C   0  0  2  0  0  0  0  0  0  0  0  0
   -7.3460   -2.5250  -19.3090 C   0  0  0  0  0  0  0  0  0  0  0  0
   -8.3890   -4.0550  -15.4910 F   0  0  0  0  0  0  0  0  0  0  0  0
   -4.0900   -1.9870  -18.1620 C   0  0  0  0  0  0  0  0  0  0  0  0
   -3.7480   -2.5250  -16.9220 C   0  0  0  0  0  0  0  0  0  0  0  0
   -9.5400   -3.0930  -17.2520 C   0  0  0  0  0  0  0  0  0  0  0  0
   -2.5770   -2.0740  -16.2910 C   0  0  0  0  0  0  0  0  0  0  0  0
   -9.0120   -2.0000  -15.3120 F   0  0  0  0  0  0  0  0  0  0  0  0
   -7.1900   -2.5170  -16.6340 C   0  0  0  0  0  0  0  0  0  0  0  0
   -8.5490   -2.9670  -16.1190 C   0  0  1  0  0  0  0  0  0  0  0  0
   -1.7610   -1.1700  -16.8920 C   0  0  0  0  0  0  0  0  0  0  0  0
   -1.5260    0.2710  -18.8490 N   0  0  0  0  0  0  0  0  0  0  0  0
   -2.3250   -2.5230  -14.8330 C   0  0  0  0  0  0  0  0  0  0  0  0
   -5.0470   -2.5230  -18.7890 O   0  0  0  0  0  0  0  0  0  0  0  0
   -6.2080   -1.7700  -18.9450 C   0  0  2  0  0  0  0  0  0  0  0  0
  1 18  1  0
  2  5  1  0
  2 10  1  0
  2  3  1  0
  3 17  1  0
  5  1  2  0
  6 12  1  0
  7  4  1  1
  7 15  1  0
  8 21  1  0
  8  7  1  0
 10 11  2  0
 11 13  1  0
 12 16  1  0
 13 19  1  0
 15 16  1  0
 16  9  1  1
 16 14  1  0
 17 13  2  0
 18  3  2  0
 20 10  1  0
 21 20  1  1
 21  7  1  0
M  END
$$$$

     RDKit          3D

 21 23  0  0  0  0  0  0  0  0999 V2000
   -2.5230    0.5470  -19.7940 N   0  0  0  0  0  0  0  0  0  0  0  0
   -3.3260   -0.9730  -18.5470 C   0  0  0  0  0  0  0  0  0  0  0  0
   -2.0880   -0.6560  -18.1590 C   0  0  0  0  0  0  0  0  0  0  0  0
   -8.1910   -0.9680  -18.0080 O   0  0  0  0  0  0  0  0  0  0  0  0
   -3.5900   -0.3110  -19.6880 C   0  0  0  0  0  0  0  0  0  0  0  0
   -9.3300   -4.6780  -17.8890 O   0  0  0  0  0  0  0  0  0  0  0  0
   -7.3870   -2.0140  -18.0090 C   0  0  2  0  0  0  0  0  0  0  0  0
   -7.3540   -2.9720  -19.1060 C   0  0  0  0  0  0  0  0  0  0  0  0
   -8.3370   -4.3040  -15.1210 C   0  0  0  0  0  0  0  0  0  0  0  0
   -4.0090   -1.9530  -17.8530 C   0  0  0  0  0  0  0  0  0  0  0  0
   -3.6930   -2.2640  -16.6290 N   0  0  0  0  0  0  0  0  0  0  0  0
   -9.6570   -3.4570  -17.0630 C   0  0  0  0  0  0  0  0  0  0  0  0
   -2.4230   -1.9800  -16.2360 C   0  0  0  0  0  0  0  0  0  0  0  0
   -9.0640   -1.9360  -15.2670 C   0  0  0  0  0  0  0  0  0  0  0  0
   -7.1950   -2.7570  -16.6470 C   0  0  0  0  0  0  0  0  0  0  0  0
   -8.5190   -3.1090  -16.0830 C   0  0  1  0  0  0  0  0  0  0  0  0
   -1.5870   -1.2420  -17.0530 C   0  0  0  0  0  0  0  0  0  0  0  0
   -1.6410    0.3810  -18.8080 N   0  0  0  0  0  0  0  0  0  0  0  0
   -1.9720   -2.4920  -14.9150 C   0  0  0  0  0  0  0  0  0  0  0  0
   -5.0450   -2.5660  -18.4290 N   0  0  0  0  0  0  0  0  0  0  0  0
   -6.2390   -1.9350  -18.9040 C   0  0  2  0  0  0  0  0  0  0  0  0
  1  5  1  0
  1 18  1  0
  2  3  2  0
  2 10  1  0
  3 17  1  0
  5  2  1  0
  6 12  1  0
  7  4  1  1
  7 15  1  0
  8 21  1  0
  8  7  1  0
 10 11  2  0
 11 13  1  0
 12 16  1  0
 13 19  1  0
 15 16  1  0
 16 14  1  1
 16  9  1  0
 17 13  2  0
 18  3  1  0
 20 10  1  0
 21 20  1  1
 21  7  1  0
M  END
$$$$

     RDKit          3D

 21 22  0  0  0  0  0  0  0  0999 V2000
   -2.0490    0.3420  -20.0660 C   0  0  0  0  0  0  0  0  0  0  0  0
   -3.4090   -0.9990  -18.6620 C   0  0  0  0  0  0  0  0  0  0  0  0
   -2.0280   -0.9600  -18.2360 C   0  0  0  0  0  0  0  0  0  0  0  0
   -8.3730   -0.7240  -17.1410 F   0  0  0  0  0  0  0  0  0  0  0  0
   -3.4870   -0.1780  -19.7870 C   0  0  0  0  0  0  0  0  0  0  0  0
   -9.4130   -4.8350  -17.9240 O   0  0  0  0  0  0  0  0  0  0  0  0
   -7.1830   -1.3050  -17.3310 C   0  0  1  0  0  0  0  0  0  0  0  0
   -7.5340   -2.3150  -19.1710 O   0  0  0  0  0  0  0  0  0  0  0  0
   -8.0070   -4.0920  -15.1800 F   0  0  0  0  0  0  0  0  0  0  0  0
   -4.2960   -1.9160  -18.0590 C   0  0  0  0  0  0  0  0  0  0  0  0
   -4.0110   -2.4380  -16.8810 C   0  0  0  0  0  0  0  0  0  0  0  0
   -9.1100   -3.6180  -17.1620 C   0  0  0  0  0  0  0  0  0  0  0  0
   -2.7510   -2.1070  -16.2230 C   0  0  0  0  0  0  0  0  0  0  0  0
   -9.0280   -2.1280  -15.4130 F   0  0  0  0  0  0  0  0  0  0  0  0
   -6.9790   -2.5050  -16.4900 C   0  0  0  0  0  0  0  0  0  0  0  0
   -8.2820   -3.0560  -16.0560 C   0  0  1  0  0  0  0  0  0  0  0  0
   -1.8530   -1.4470  -16.9870 C   0  0  0  0  0  0  0  0  0  0  0  0
   -1.1800   -0.3040  -19.1130 O   0  0  0  0  0  0  0  0  0  0  0  0
   -2.4470   -2.6100  -14.7370 C   0  0  0  0  0  0  0  0  0  0  0  0
   -5.4110   -2.2790  -18.8630 N   0  0  0  0  0  0  0  0  0  0  0  0
   -6.8180   -1.5730  -18.9140 C   0  0  2  0  0  0  0  0  0  0  0  0
  1  5  2  0
  1 18  1  0
  2  3  2  0
  2 10  1  0
  3 17  1  0
  5  2  1  0
  6 12  1  0
  7  4  1  6
  7 15  1  0
 10 11  2  0
 11 13  1  0
 12 16  1  0
 13 19  1  0
 15 16  1  0
 16 14  1  1
 16  9  1  0
 17 13  2  0
 18  3  1  0
 20 10  1  0
 21  8  1  1
 21 20  1  0
 21  7  1  0
M  END
$$$$

     RDKit          3D

 21 23  0  0  0  0  0  0  0  0999 V2000
   -2.7380    0.6400  -20.0690 N   0  0  0  0  0  0  0  0  0  0  0  0
   -3.5910   -0.8430  -18.9660 C   0  0  1  0  0  0  0  0  0  0  0  0
   -2.2760   -0.5710  -18.5020 C   0  0  0  0  0  0  0  0  0  0  0  0
   -8.7070   -0.5740  -18.0390 C   0  0  0  0  0  0  0  0  0  0  0  0
   -3.7540   -0.0960  -19.9720 N   0  0  0  0  0  0  0  0  0  0  0  0
   -9.4780   -4.6870  -17.8010 N   0  0  0  0  0  0  0  0  0  0  0  0
   -7.6210   -1.7550  -18.1090 C   0  0  2  0  0  0  0  0  0  0  0  0
   -8.2510   -2.9660  -18.5800 O   0  0  0  0  0  0  0  0  0  0  0  0
   -8.0220   -4.0650  -15.3400 F   0  0  0  0  0  0  0  0  0  0  0  0
   -4.3910   -1.8230  -18.3650 C   0  0  0  0  0  0  0  0  0  0  0  0
   -3.8950   -2.3290  -17.1680 C   0  0  0  0  0  0  0  0  0  0  0  0
   -8.7910   -3.5350  -17.5490 C   0  0  2  0  0  0  0  0  0  0  0  0
   -2.6880   -1.9870  -16.6660 C   0  0  0  0  0  0  0  0  0  0  0  0
   -9.5260   -2.3870  -15.6700 F   0  0  0  0  0  0  0  0  0  0  0  0
   -7.2740   -2.1030  -16.5890 C   0  0  0  0  0  0  0  0  0  0  0  0
   -8.4060   -3.0090  -16.1860 C   0  0  1  0  0  0  0  0  0  0  0  0
   -1.7950   -1.2140  -17.4800 C   0  0  0  0  0  0  0  0  0  0  0  0
   -1.8660    0.4560  -19.1780 N   0  0  0  0  0  0  0  0  0  0  0  0
   -2.0900   -2.5120  -15.1140 Cl  0  0  0  0  0  0  0  0  0  0  0  0
   -5.4980   -2.1360  -19.1480 N   0  0  0  0  0  0  0  0  0  0  0  0
   -6.7040   -1.3390  -19.2430 C   0  0  0  0  0  0  0  0  0  0  0  0
  1  5  2  0
  1 18  1  0
  2  5  1  6
  2  3  1  0
  2 10  1  0
  3 17  1  0
  7  4  1  1
  7 15  1  0
  8  7  1  0
  8 12  1  0
 10 11  2  0
 11 13  1  0
 12  6  1  1
 12 16  1  0
 13 19  1  0
 15 16  1  0
 16 14  1  1
 16  9  1  0
 17 13  2  0
 18  3  2  0
 20 10  1  0
 21 20  1  0
 21  7  1  0
M  END
$$$$

     RDKit          3D

 21 23  0  0  0  0  0  0  0  0999 V2000
   -2.3570    0.5860  -19.8490 N   0  0  0  0  0  0  0  0  0  0  0  0
   -3.2810   -0.8830  -18.8060 C   0  0  2  0  0  0  0  0  0  0  0  0
   -2.1330   -0.5960  -18.0520 C   0  0  0  0  0  0  0  0  0  0  0  0
   -7.6280   -0.5880  -17.5500 C   0  0  0  0  0  0  0  0  0  0  0  0
   -3.4380   -0.1370  -19.9410 C   0  0  0  0  0  0  0  0  0  0  0  0
  -10.0950   -4.2530  -17.4890 N   0  0  0  0  0  0  0  0  0  0  0  0
   -7.0800   -2.0340  -17.9310 C   0  0  2  0  0  0  0  0  0  0  0  0
   -7.6130   -2.3710  -19.0010 C   0  0  0  0  0  0  0  0  0  0  0  0
   -8.1960   -3.4250  -14.7870 F   0  0  0  0  0  0  0  0  0  0  0  0
   -4.2370   -1.8190  -18.3040 C   0  0  2  0  0  0  0  0  0  0  0  0
   -3.9890   -2.3150  -17.0380 C   0  0  0  0  0  0  0  0  0  0  0  0
   -9.5090   -3.7170  -16.8630 C   0  0  0  0  0  0  0  0  0  0  0  0
   -2.7460   -2.0060  -16.3670 C   0  0  0  0  0  0  0  0  0  0  0  0
   -9.4330   -1.7370  -15.6660 F   0  0  0  0  0  0  0  0  0  0  0  0
   -7.1830   -2.4640  -16.6860 C   0  0  0  0  0  0  0  0  0  0  0  0
   -8.5540   -2.8040  -15.9510 C   0  0  1  0  0  0  0  0  0  0  0  0
   -1.8530   -1.2050  -16.8950 N   0  0  0  0  0  0  0  0  0  0  0  0
   -1.5340    0.3290  -18.7030 N   0  0  0  0  0  0  0  0  0  0  0  0
   -2.4280   -2.4950  -15.0520 C   0  0  0  0  0  0  0  0  0  0  0  0
   -5.2060   -2.2720  -19.1830 O   0  0  0  0  0  0  0  0  0  0  0  0
   -6.5610   -1.6020  -19.3850 C   0  0  2  0  0  0  0  0  0  0  0  0
  1 18  1  0
  2  5  1  1
  2 10  1  0
  2  3  1  0
  3 17  2  0
  5  1  2  0
  6 12  3  0
  7  4  1  1
  7 15  1  0
  8  7  1  0
 10 20  1  6
 10 11  1  0
 11 13  2  0
 12 16  1  0
 13 19  1  0
 15 16  1  0
 16 14  1  1
 16  9  1  0
 17 13  1  0
 18  3  1  0
 21 20  1  6
 21  8  1  0
 21  7  1  0
M  END
$$$$

     RDKit          3D

 21 23  0  0  0  0  0  0  0  0999 V2000
   -2.7020    0.8360  -20.2090 N   0  0  0  0  0  0  0  0  0  0  0  0
   -3.4340   -0.7710  -18.9720 C   0  0  0  0  0  0  0  0  0  0  0  0
   -2.1920   -0.4490  -18.4630 C   0  0  0  0  0  0  0  0  0  0  0  0
   -8.5230   -0.6530  -17.8270 C   0  0  0  0  0  0  0  0  0  0  0  0
   -3.7030   -0.0020  -20.0880 N   0  0  0  0  0  0  0  0  0  0  0  0
  -10.0790   -4.5010  -17.3210 C   0  0  0  0  0  0  0  0  0  0  0  0
   -7.4920   -1.8430  -17.9400 C   0  0  2  0  0  0  0  0  0  0  0  0
   -8.1240   -3.1660  -18.4150 C   0  0  0  0  0  0  0  0  0  0  0  0
   -8.4230   -3.8550  -15.2910 C   0  0  0  0  0  0  0  0  0  0  0  0
   -4.2260   -1.7750  -18.3590 C   0  0  0  0  0  0  0  0  0  0  0  0
   -3.6910   -2.3670  -17.1910 C   0  0  0  0  0  0  0  0  0  0  0  0
   -9.0310   -3.4870  -17.2930 N   0  0  0  0  0  0  0  0  0  0  0  0
   -2.4310   -2.1350  -16.7550 C   0  0  0  0  0  0  0  0  0  0  0  0
   -9.2860   -2.0480  -15.4190 F   0  0  0  0  0  0  0  0  0  0  0  0
   -7.1230   -2.3320  -16.5220 C   0  0  0  0  0  0  0  0  0  0  0  0
   -8.5820   -2.9060  -16.0840 C   0  0  1  0  0  0  0  0  0  0  0  0
   -1.6620   -1.2310  -17.4480 C   0  0  0  0  0  0  0  0  0  0  0  0
   -1.7200    0.6010  -19.1700 O   0  0  0  0  0  0  0  0  0  0  0  0
   -1.7810   -2.6840  -15.4630 C   0  0  0  0  0  0  0  0  0  0  0  0
   -5.4370   -2.2380  -18.9220 O   0  0  0  0  0  0  0  0  0  0  0  0
   -6.5100   -1.3940  -19.0230 C   0  0  0  0  0  0  0  0  0  0  0  0
  1  5  2  0
  1 18  1  0
  2  3  2  0
  2 10  1  0
  3 17  1  0
  5  2  1  0
  6 12  1  0
  7  4  1  1
  7 15  1  0
  8  7  1  0
  8 12  1  0
 10 11  2  0
 11 13  1  0
 12 16  1  0
 13 19  1  0
 15 16  1  0
 16 14  1  0
 16  9  1  1
 17 13  2  0
 18  3  1  0
 20 10  1  0
 21 20  1  0
 21  7  1  0
M  END
$$$$

     RDKit          3D

 21 23  0  0  0  0  0  0  0  0999 V2000
   -2.4440    0.4960  -19.7510 C   0  0  0  0  0  0  0  0  0  0  0  0
   -3.3550   -0.9370  -18.5690 C   0  0  2  0  0  0  0  0  0  0  0  0
   -2.2270   -0.6110  -18.0490 C   0  0  0  0  0  0  0  0  0  0  0  0
   -7.9980   -0.9680  -18.0140 O   0  0  0  0  0  0  0  0  0  0  0  0
   -3.5020   -0.1180  -19.5450 N   0  0  0  0  0  0  0  0  0  0  0  0
   -8.9490   -4.3120  -18.0220 O   0  0  0  0  0  0  0  0  0  0  0  0
   -7.4050   -1.9690  -18.1080 C   0  0  2  0  0  0  0  0  0  0  0  0
   -7.2220   -2.8070  -19.2570 N   0  0  0  0  0  0  0  0  0  0  0  0
   -8.0180   -4.0700  -15.3260 F   0  0  0  0  0  0  0  0  0  0  0  0
   -4.0710   -1.8510  -17.9900 C   0  0  0  0  0  0  0  0  0  0  0  0
   -3.8230   -2.2670  -16.7420 C   0  0  0  0  0  0  0  0  0  0  0  0
   -9.4860   -3.3750  -17.0050 C   0  0  0  0  0  0  0  0  0  0  0  0
   -2.5940   -1.9220  -16.2010 C   0  0  0  0  0  0  0  0  0  0  0  0
   -8.8410   -1.9840  -15.0970 F   0  0  0  0  0  0  0  0  0  0  0  0
   -7.1620   -2.4590  -16.7070 C   0  0  0  0  0  0  0  0  0  0  0  0
   -8.4170   -2.9070  -15.9800 C   0  0  1  0  0  0  0  0  0  0  0  0
   -1.8010   -1.1380  -16.9260 C   0  0  0  0  0  0  0  0  0  0  0  0
   -1.6370    0.2740  -18.8820 N   0  0  0  0  0  0  0  0  0  0  0  0
   -2.2870   -2.1460  -15.0870 F   0  0  0  0  0  0  0  0  0  0  0  0
   -5.0220   -2.5340  -18.6920 C   0  0  0  0  0  0  0  0  0  0  0  0
   -6.3050   -2.1240  -19.1340 C   0  0  2  0  0  0  0  0  0  0  0  0
  1  5  2  0
  1 18  1  0
  2  5  1  1
  2  3  1  0
  2 10  1  0
  3 17  1  0
  6 12  1  0
  7  4  1  1
  7 15  1  0
  8 21  1  0
  8  7  1  0
 10 11  2  0
 11 13  1  0
 12 16  1  0
 13 19  1  0
 15 16  1  0
 16  9  1  1
 16 14  1  0
 17 13  2  0
 18  3  2  0
 20 10  1  0
 21 20  1  1
 21  7  1  0
M  END
$$$$

     RDKit          3D

 21 23  0  0  0  0  0  0  0  0999 V2000
   -2.4680    0.4870  -19.8100 C   0  0  0  0  0  0  0  0  0  0  0  0
   -3.3410   -1.0020  -18.6440 C   0  0  2  0  0  0  0  0  0  0  0  0
   -2.1210   -0.7090  -18.1510 C   0  0  0  0  0  0  0  0  0  0  0  0
   -8.2090   -0.9240  -17.9170 F   0  0  0  0  0  0  0  0  0  0  0  0
   -3.5470   -0.2340  -19.6500 N   0  0  0  0  0  0  0  0  0  0  0  0
   -9.3070   -4.5760  -18.0090 O   0  0  0  0  0  0  0  0  0  0  0  0
   -7.3570   -1.9530  -17.9740 C   0  0  2  0  0  0  0  0  0  0  0  0
   -7.2850   -2.7610  -19.1600 C   0  0  0  0  0  0  0  0  0  0  0  0
   -8.3940   -4.1920  -15.2750 C   0  0  0  0  0  0  0  0  0  0  0  0
   -4.1040   -1.9150  -17.9840 C   0  0  0  0  0  0  0  0  0  0  0  0
   -3.7570   -2.4430  -16.7550 C   0  0  0  0  0  0  0  0  0  0  0  0
   -9.5300   -3.3610  -17.3240 C   0  0  0  0  0  0  0  0  0  0  0  0
   -2.5770   -1.9770  -16.2960 C   0  0  0  0  0  0  0  0  0  0  0  0
   -9.0420   -1.9160  -15.5410 F   0  0  0  0  0  0  0  0  0  0  0  0
   -7.2490   -2.6370  -16.5780 C   0  0  0  0  0  0  0  0  0  0  0  0
   -8.6310   -3.0030  -16.1600 C   0  0  1  0  0  0  0  0  0  0  0  0
   -1.7940   -1.1490  -17.0370 N   0  0  0  0  0  0  0  0  0  0  0  0
   -1.4940    0.1430  -19.0970 N   0  0  0  0  0  0  0  0  0  0  0  0
   -2.0030   -2.2840  -14.9500 C   0  0  0  0  0  0  0  0  0  0  0  0
   -5.1040   -2.4550  -18.6900 O   0  0  0  0  0  0  0  0  0  0  0  0
   -6.2970   -1.7430  -18.9190 C   0  0  2  0  0  0  0  0  0  0  0  0
  1  5  1  0
  1 18  1  0
  2  5  1  1
  2  3  1  0
  2 10  1  0
  3 17  2  0
  6 12  1  0
  7  4  1  1
  7 15  1  0
  8 21  1  0
  8  7  1  0
 10 11  2  0
 11 13  1  0
 12 16  1  0
 13 19  1  0
 15 16  1  0
 16 14  1  0
 16  9  1  1
 17 13  1  0
 18  3  1  0
 20 10  1  0
 21 20  1  1
 21  7  1  0
M  END
$$$$

     RDKit          3D

 21 23  0  0  0  0  0  0  0  0999 V2000
   -2.5140    0.5730  -20.1320 C   0  0  0  0  0  0  0  0  0  0  0  0
   -3.4820   -0.8350  -18.8510 C   0  0  1  0  0  0  0  0  0  0  0  0
   -2.2570   -0.5320  -18.3150 C   0  0  0  0  0  0  0  0  0  0  0  0
   -8.4340   -0.4200  -18.2280 C   0  0  0  0  0  0  0  0  0  0  0  0
   -3.6660   -0.1860  -19.9660 N   0  0  0  0  0  0  0  0  0  0  0  0
   -9.4170   -4.6860  -17.7130 O   0  0  0  0  0  0  0  0  0  0  0  0
   -7.6730   -1.7360  -18.1660 C   0  0  2  0  0  0  0  0  0  0  0  0
   -8.3090   -2.9790  -18.6860 N   0  0  0  0  0  0  0  0  0  0  0  0
   -8.2190   -3.7770  -15.1640 C   0  0  0  0  0  0  0  0  0  0  0  0
   -4.2590   -1.8310  -18.3030 C   0  0  0  0  0  0  0  0  0  0  0  0
   -3.8850   -2.4350  -17.1170 C   0  0  0  0  0  0  0  0  0  0  0  0
   -8.8400   -3.6240  -17.5820 C   0  0  0  0  0  0  0  0  0  0  0  0
   -2.6660   -1.9780  -16.4950 C   0  0  0  0  0  0  0  0  0  0  0  0
   -9.7260   -2.0160  -15.9770 C   0  0  0  0  0  0  0  0  0  0  0  0
   -7.3870   -2.0530  -16.7320 C   0  0  0  0  0  0  0  0  0  0  0  0
   -8.6100   -2.8660  -16.3450 C   0  0  1  0  0  0  0  0  0  0  0  0
   -1.9030   -0.9900  -17.0850 C   0  0  0  0  0  0  0  0  0  0  0  0
   -1.6700    0.4220  -19.1140 N   0  0  0  0  0  0  0  0  0  0  0  0
   -2.2230   -2.6110  -14.9240 Cl  0  0  0  0  0  0  0  0  0  0  0  0
   -5.3650   -2.2770  -18.9140 N   0  0  0  0  0  0  0  0  0  0  0  0
   -6.5730   -1.5240  -19.1640 C   0  0  0  0  0  0  0  0  0  0  0  0
  1  5  2  0
  1 18  1  0
  2  5  1  6
  2  3  1  0
  2 10  1  0
  3 17  1  0
  6 12  2  0
  7  4  1  1
  7 15  1  0
  8  7  1  0
  8 12  1  0
 10 11  2  0
 11 13  1  0
 12 16  1  0
 13 19  1  0
 15 16  1  0
 16 14  1  1
 16  9  1  0
 17 13  2  0
 18  3  2  0
 20 10  1  0
 21 20  1  0
 21  7  1  0
M  END
$$$$

     RDKit          3D

 21 23  0  0  0  0  0  0  0  0999 V2000
   -2.6750    0.7920  -20.1700 C   0  0  0  0  0  0  0  0  0  0  0  0
   -3.4490   -0.8770  -19.0270 C   0  0  0  0  0  0  0  0  0  0  0  0
   -2.2530   -0.4880  -18.3840 C   0  0  0  0  0  0  0  0  0  0  0  0
   -8.2690   -0.4660  -17.7460 C   0  0  0  0  0  0  0  0  0  0  0  0
   -3.5800   -0.1750  -20.2260 O   0  0  0  0  0  0  0  0  0  0  0  0
   -9.5710   -4.5260  -17.5850 C   0  0  0  0  0  0  0  0  0  0  0  0
   -7.5780   -1.8250  -17.8010 C   0  0  2  0  0  0  0  0  0  0  0  0
   -8.5030   -2.8070  -18.4800 C   0  0  0  0  0  0  0  0  0  0  0  0
   -8.3260   -4.0540  -15.0280 C   0  0  0  0  0  0  0  0  0  0  0  0
   -4.2100   -1.9320  -18.4660 C   0  0  0  0  0  0  0  0  0  0  0  0
   -3.8450   -2.4190  -17.3470 C   0  0  0  0  0  0  0  0  0  0  0  0
   -9.1870   -3.3110  -17.2470 N   0  0  0  0  0  0  0  0  0  0  0  0
   -2.6120   -2.1080  -16.7340 C   0  0  0  0  0  0  0  0  0  0  0  0
   -9.5070   -1.9800  -15.5700 F   0  0  0  0  0  0  0  0  0  0  0  0
   -7.2400   -2.3190  -16.4890 O   0  0  0  0  0  0  0  0  0  0  0  0
   -8.6210   -2.8530  -15.9960 C   0  0  1  0  0  0  0  0  0  0  0  0
   -1.8150   -1.0760  -17.2570 C   0  0  0  0  0  0  0  0  0  0  0  0
   -1.7240    0.5090  -19.0900 C   0  0  0  0  0  0  0  0  0  0  0  0
   -2.1170   -2.8230  -15.1730 Cl  0  0  0  0  0  0  0  0  0  0  0  0
   -5.4370   -2.3220  -19.0290 N   0  0  0  0  0  0  0  0  0  0  0  0
   -6.3450   -1.4920  -18.6670 C   0  0  0  0  0  0  0  0  0  0  0  0
  1 18  1  0
  2 10  1  0
  2  3  2  0
  3 17  1  0
  5  1  1  0
  5  2  1  0
  6 12  1  0
  7  4  1  1
  7 15  1  0
  8  7  1  0
  8 12  1  0
 10 11  2  0
 11 13  1  0
 12 16  1  0
 13 19  1  0
 15 16  1  0
 16 14  1  0
 16  9  1  1
 17 13  2  0
 18  3  1  0
 20 21  1  0
 20 10  1  0
 21  7  1  0
M  END
$$$$

     RDKit          3D

 21 23  0  0  0  0  0  0  0  0999 V2000
   -2.4990    0.7240  -20.0900 C   0  0  0  0  0  0  0  0  0  0  0  0
   -3.5470   -0.8190  -18.7450 C   0  0  0  0  0  0  0  0  0  0  0  0
   -2.4490   -0.3560  -18.1450 C   0  0  0  0  0  0  0  0  0  0  0  0
   -7.9020   -0.2890  -17.4470 O   0  0  0  0  0  0  0  0  0  0  0  0
   -3.5430   -0.1590  -19.9150 N   0  0  0  0  0  0  0  0  0  0  0  0
   -9.6140   -4.3310  -17.2170 N   0  0  0  0  0  0  0  0  0  0  0  0
   -7.4350   -1.5850  -17.8860 C   0  0  2  0  0  0  0  0  0  0  0  0
   -7.8390   -2.2630  -19.1640 C   0  0  0  0  0  0  0  0  0  0  0  0
   -7.3630   -3.6200  -14.9600 O   0  0  0  0  0  0  0  0  0  0  0  0
   -4.2650   -1.7690  -18.1510 C   0  0  0  0  0  0  0  0  0  0  0  0
   -3.8370   -2.3890  -16.9620 C   0  0  0  0  0  0  0  0  0  0  0  0
   -9.1480   -3.1960  -16.4400 C   0  0  0  0  0  0  0  0  0  0  0  0
   -2.7080   -1.8830  -16.4190 C   0  0  0  0  0  0  0  0  0  0  0  0
   -9.9480   -2.3990  -16.1390 O   0  0  0  0  0  0  0  0  0  0  0  0
   -6.7320   -2.5180  -16.8660 C   0  0  0  0  0  0  0  0  0  0  0  0
   -7.7150   -3.2270  -16.0520 C   0  0  0  0  0  0  0  0  0  0  0  0
   -2.1230   -0.8080  -16.9900 N   0  0  0  0  0  0  0  0  0  0  0  0
   -1.8700    0.6250  -18.8960 N   0  0  0  0  0  0  0  0  0  0  0  0
   -2.0910   -2.4650  -15.1570 C   0  0  0  0  0  0  0  0  0  0  0  0
   -5.3990   -2.2180  -18.6920 O   0  0  0  0  0  0  0  0  0  0  0  0
   -6.5040   -1.5690  -19.0030 C   0  0  2  0  0  0  0  0  0  0  0  0
  1  5  1  0
  1 18  2  0
  2 10  1  0
  2  3  1  0
  3 17  2  0
  5  2  2  0
  6 12  1  0
  7  4  1  1
  7 15  1  0
  8 21  1  0
  8  7  1  0
 10 11  2  0
 11 13  1  0
 12 14  2  0
 12 16  1  0
 13 19  1  0
 15 16  1  0
 16  9  2  0
 17 13  1  0
 18  3  1  0
 20 10  1  0
 21 20  1  1
 21  7  1  0
M  END
$$$$

     RDKit          3D

 21 23  0  0  0  0  0  0  0  0999 V2000
   -2.4550    0.3980  -20.0170 C   0  0  0  0  0  0  0  0  0  0  0  0
   -3.2930   -0.9460  -18.8110 C   0  0  0  0  0  0  0  0  0  0  0  0
   -2.1610   -0.5730  -18.3980 C   0  0  1  0  0  0  0  0  0  0  0  0
   -8.2510   -0.8830  -18.0760 O   0  0  0  0  0  0  0  0  0  0  0  0
   -3.5570   -0.2480  -19.7880 C   0  0  0  0  0  0  0  0  0  0  0  0
   -9.2750   -4.7700  -17.0480 O   0  0  0  0  0  0  0  0  0  0  0  0
   -7.5520   -2.0350  -17.9670 C   0  0  2  0  0  0  0  0  0  0  0  0
   -8.3880   -3.0840  -18.4050 C   0  0  0  0  0  0  0  0  0  0  0  0
   -8.2040   -3.6700  -14.7180 C   0  0  0  0  0  0  0  0  0  0  0  0
   -4.0770   -1.8040  -18.1890 C   0  0  0  0  0  0  0  0  0  0  0  0
   -3.7470   -2.4210  -16.8670 C   0  0  0  0  0  0  0  0  0  0  0  0
   -8.7820   -3.6310  -17.0500 C   0  0  0  0  0  0  0  0  0  0  0  0
   -2.3830   -1.8380  -16.5610 C   0  0  2  0  0  0  0  0  0  0  0  0
   -9.3760   -1.8100  -15.4490 C   0  0  0  0  0  0  0  0  0  0  0  0
   -7.2320   -2.2820  -16.5110 C   0  0  0  0  0  0  0  0  0  0  0  0
   -8.4820   -2.8550  -15.9220 C   0  0  1  0  0  0  0  0  0  0  0  0
   -1.5910   -1.2570  -17.3450 C   0  0  0  0  0  0  0  0  0  0  0  0
   -1.4570    0.0990  -19.3020 N   0  0  0  0  0  0  0  0  0  0  0  0
   -1.9690   -2.5000  -15.2260 C   0  0  0  0  0  0  0  0  0  0  0  0
   -5.2740   -2.2640  -18.6910 N   0  0  0  0  0  0  0  0  0  0  0  0
   -6.3650   -1.8860  -19.0040 C   0  0  0  0  0  0  0  0  0  0  0  0
  1  5  1  0
  1 18  1  0
  2  3  1  0
  2 10  2  0
  3 17  1  6
  5  2  1  0
  7  4  1  1
  7 15  1  0
  8  7  1  0
  8 12  1  0
 10 11  1  0
 11 13  1  0
 12  6  2  0
 12 16  1  0
 13 19  1  6
 15 16  1  0
 16 14  1  1
 16  9  1  0
 17 13  1  0
 18  3  1  0
 20 10  1  0
 21 20  1  0
 21  7  1  0
M  END
$$$$

     RDKit          3D

 21 23  0  0  0  0  0  0  0  0999 V2000
   -2.5170    0.5740  -19.5920 C   0  0  0  0  0  0  0  0  0  0  0  0
   -3.2990   -1.0110  -18.7840 C   0  0  0  0  0  0  0  0  0  0  0  0
   -2.1510   -0.6350  -18.2730 C   0  0  0  0  0  0  0  0  0  0  0  0
   -7.8500   -1.0320  -18.0660 O   0  0  0  0  0  0  0  0  0  0  0  0
   -3.5110   -0.2760  -19.8890 N   0  0  0  0  0  0  0  0  0  0  0  0
   -9.6140   -4.3900  -17.6630 N   0  0  0  0  0  0  0  0  0  0  0  0
   -7.3080   -2.1410  -18.1870 C   0  0  2  0  0  0  0  0  0  0  0  0
   -7.3140   -2.8180  -19.4020 O   0  0  0  0  0  0  0  0  0  0  0  0
   -8.2480   -4.0420  -15.0740 F   0  0  0  0  0  0  0  0  0  0  0  0
   -3.8850   -2.0650  -18.1570 C   0  0  1  0  0  0  0  0  0  0  0  0
   -3.7150   -2.3970  -16.8120 C   0  0  0  0  0  0  0  0  0  0  0  0
   -9.4770   -3.1250  -17.1730 C   0  0  0  0  0  0  0  0  0  0  0  0
   -2.4690   -1.7600  -16.2490 C   0  0  2  0  0  0  0  0  0  0  0  0
   -8.8980   -1.8820  -15.3150 F   0  0  0  0  0  0  0  0  0  0  0  0
   -7.2830   -2.6520  -16.5270 C   0  0  0  0  0  0  0  0  0  0  0  0
   -8.4750   -2.9490  -15.9680 C   0  0  1  0  0  0  0  0  0  0  0  0
   -1.6700   -1.0870  -17.0300 C   0  0  0  0  0  0  0  0  0  0  0  0
   -1.6790    0.4680  -18.9050 N   0  0  0  0  0  0  0  0  0  0  0  0
   -2.1090   -2.0910  -14.8940 C   0  0  0  0  0  0  0  0  0  0  0  0
   -4.9840   -2.4030  -18.5850 C   0  0  0  0  0  0  0  0  0  0  0  0
   -6.2720   -2.0380  -18.9740 C   0  0  2  0  0  0  0  0  0  0  0  0
  1 18  1  0
  2  3  2  0
  2 10  1  0
  3 17  1  0
  5  1  1  0
  5  2  1  0
  6 12  1  0
  7  4  1  1
  7 15  1  0
  8 21  1  0
  8  7  1  0
 10 20  1  1
 10 11  1  0
 11 13  1  0
 12 16  1  0
 13 19  1  6
 15 16  1  0
 16 14  1  1
 16  9  1  0
 17 13  1  0
 18  3  1  0
 21 20  1  1
 21  7  1  0
M  END
$$$$

     RDKit          3D

 21 23  0  0  0  0  0  0  0  0999 V2000
   -2.1490    0.7140  -19.6830 C   0  0  0  0  0  0  0  0  0  0  0  0
   -3.1490   -0.8910  -18.6600 C   0  0  0  0  0  0  0  0  0  0  0  0
   -2.0070   -0.4700  -18.0590 C   0  0  0  0  0  0  0  0  0  0  0  0
   -7.9650   -0.8900  -18.0430 F   0  0  0  0  0  0  0  0  0  0  0  0
   -3.5330   -0.1440  -20.1340 S   0  0  0  0  0  0  0  0  0  0  0  0
   -9.2980   -4.6820  -17.8720 O   0  0  0  0  0  0  0  0  0  0  0  0
   -7.2770   -1.9870  -18.0510 C   0  0  2  0  0  0  0  0  0  0  0  0
   -7.2740   -2.6270  -19.1880 O   0  0  0  0  0  0  0  0  0  0  0  0
   -8.3850   -4.1270  -15.2540 F   0  0  0  0  0  0  0  0  0  0  0  0
   -3.8610   -1.9140  -18.1420 C   0  0  0  0  0  0  0  0  0  0  0  0
   -3.5600   -2.4790  -16.9500 C   0  0  0  0  0  0  0  0  0  0  0  0
   -9.8780   -3.6590  -17.2610 C   0  0  0  0  0  0  0  0  0  0  0  0
   -2.4510   -2.0190  -16.2410 C   0  0  0  0  0  0  0  0  0  0  0  0
   -9.1560   -1.9020  -15.6140 F   0  0  0  0  0  0  0  0  0  0  0  0
   -7.3090   -2.5410  -16.6240 C   0  0  0  0  0  0  0  0  0  0  0  0
   -8.6740   -3.1090  -16.2790 C   0  0  1  0  0  0  0  0  0  0  0  0
   -1.6080   -0.9680  -16.8610 C   0  0  0  0  0  0  0  0  0  0  0  0
   -1.4180    0.4750  -18.6900 C   0  0  0  0  0  0  0  0  0  0  0  0
   -1.9620   -2.3650  -15.1670 N   0  0  0  0  0  0  0  0  0  0  0  0
   -5.0260   -2.2910  -18.8630 N   0  0  0  0  0  0  0  0  0  0  0  0
   -6.2140   -1.9760  -18.9730 C   0  0  2  0  0  0  0  0  0  0  0  0
  1 18  2  0
  2 10  2  0
  2  3  1  0
  3 17  2  0
  5  1  1  0
  5  2  1  0
  6 12  1  0
  7  4  1  6
  7 15  1  0
  8 21  1  0
  8  7  1  0
 10 11  1  0
 11 13  2  0
 12 16  1  0
 13 19  1  0
 15 16  1  0
 16 14  1  1
 16  9  1  0
 17 13  1  0
 18  3  1  0
 20 10  1  0
 21 20  1  1
 21  7  1  0
M  END
$$$$

     RDKit          3D

 21 23  0  0  0  0  0  0  0  0999 V2000
   -2.3760    0.0520  -19.9850 C   0  0  0  0  0  0  0  0  0  0  0  0
   -3.4110   -1.0960  -18.6770 C   0  0  0  0  0  0  0  0  0  0  0  0
   -2.2510   -0.7180  -18.1320 C   0  0  0  0  0  0  0  0  0  0  0  0
   -8.4150   -0.7960  -17.5410 C   0  0  0  0  0  0  0  0  0  0  0  0
   -3.4410   -0.5180  -19.9530 C   0  0  0  0  0  0  0  0  0  0  0  0
  -10.0220   -4.1610  -17.6450 O   0  0  0  0  0  0  0  0  0  0  0  0
   -7.1330   -1.4520  -17.4270 C   0  0  1  0  0  0  0  0  0  0  0  0
   -7.6900   -2.8940  -19.5390 O   0  0  0  0  0  0  0  0  0  0  0  0
   -7.8990   -4.2860  -15.0350 C   0  0  0  0  0  0  0  0  0  0  0  0
   -4.2040   -2.0290  -18.1500 N   0  0  0  0  0  0  0  0  0  0  0  0
   -3.9890   -2.4440  -16.8860 N   0  0  0  0  0  0  0  0  0  0  0  0
   -9.3660   -3.4090  -16.8510 C   0  0  0  0  0  0  0  0  0  0  0  0
   -2.8940   -1.9500  -16.2010 C   0  0  0  0  0  0  0  0  0  0  0  0
   -9.2930   -2.5910  -16.1110 O   0  0  0  0  0  0  0  0  0  0  0  0
   -7.0650   -2.5880  -16.5870 C   0  0  0  0  0  0  0  0  0  0  0  0
   -8.3050   -3.1900  -16.0890 C   0  0  1  0  0  0  0  0  0  0  0  0
   -2.0000   -1.0460  -16.7410 C   0  0  0  0  0  0  0  0  0  0  0  0
   -1.4680   -0.0380  -18.9700 N   0  0  0  0  0  0  0  0  0  0  0  0
   -2.6420   -2.5090  -14.8350 C   0  0  0  0  0  0  0  0  0  0  0  0
   -5.3250   -2.8100  -18.7510 C   0  0  0  0  0  0  0  0  0  0  0  0
   -6.6480   -1.7530  -19.0550 S   0  0  0  0  0  0  0  0  0  0  0  0
  1  5  1  0
  1 18  2  0
  2 10  1  0
  2  3  1  0
  3 17  2  0
  5  2  2  0
  6 12  2  0
  7  4  1  6
  7 15  1  0
 10 11  1  0
 11 13  2  0
 12 14  1  0
 12 16  1  0
 13 19  1  0
 14 16  1  0
 15 16  1  0
 16  9  1  1
 17 13  1  0
 18  3  1  0
 20 10  1  0
 21  8  2  0
 21 20  1  1
 21  7  1  0
M  END
$$$$

     RDKit          3D

 21 23  0  0  0  0  0  0  0  0999 V2000
   -2.1910    0.4850  -20.0090 C   0  0  0  0  0  0  0  0  0  0  0  0
   -3.2550   -0.8660  -18.8190 C   0  0  0  0  0  0  0  0  0  0  0  0
   -2.1480   -0.5150  -18.2000 C   0  0  0  0  0  0  0  0  0  0  0  0
   -8.4500   -0.5180  -17.8980 C   0  0  0  0  0  0  0  0  0  0  0  0
   -3.4780   -0.1340  -19.9850 O   0  0  0  0  0  0  0  0  0  0  0  0
   -9.3250   -4.5940  -17.5290 O   0  0  0  0  0  0  0  0  0  0  0  0
   -7.6160   -1.7370  -17.9400 C   0  0  2  0  0  0  0  0  0  0  0  0
   -8.3810   -2.7790  -18.4600 O   0  0  0  0  0  0  0  0  0  0  0  0
   -8.0110   -3.8260  -14.9610 C   0  0  0  0  0  0  0  0  0  0  0  0
   -4.2110   -1.7130  -18.3430 C   0  0  0  0  0  0  0  0  0  0  0  0
   -3.8850   -2.3520  -17.1900 C   0  0  0  0  0  0  0  0  0  0  0  0
   -8.8350   -3.5440  -17.3830 C   0  0  0  0  0  0  0  0  0  0  0  0
   -2.6720   -2.0770  -16.5020 C   0  0  0  0  0  0  0  0  0  0  0  0
   -9.5970   -2.1230  -15.4990 C   0  0  0  0  0  0  0  0  0  0  0  0
   -7.1990   -2.0810  -16.5030 C   0  0  0  0  0  0  0  0  0  0  0  0
   -8.4370   -2.9030  -16.0820 C   0  0  1  0  0  0  0  0  0  0  0  0
   -1.8360   -1.1440  -17.0200 C   0  0  0  0  0  0  0  0  0  0  0  0
   -1.4480    0.4400  -18.8380 O   0  0  0  0  0  0  0  0  0  0  0  0
   -2.3050   -2.8560  -15.0270 Cl  0  0  0  0  0  0  0  0  0  0  0  0
   -5.3440   -1.8080  -19.0170 N   0  0  0  0  0  0  0  0  0  0  0  0
   -6.4830   -1.4420  -18.8550 C   0  0  0  0  0  0  0  0  0  0  0  0
  1  5  1  0
  1 18  1  0
  2 10  2  0
  2  3  1  0
  3 17  2  0
  5  2  1  0
  6 12  2  0
  7  4  1  1
  7 15  1  0
  8  7  1  0
  8 12  1  0
 10 11  1  0
 11 13  2  0
 12 16  1  0
 13 19  1  0
 15 16  1  0
 16 14  1  1
 16  9  1  0
 17 13  1  0
 18  3  1  0
 20 21  1  0
 20 10  1  0
 21  7  1  0
M  END
$$$$

     RDKit          3D

 21 23  0  0  0  0  0  0  0  0999 V2000
   -2.5930    0.6750  -20.3180 C   0  0  0  0  0  0  0  0  0  0  0  0
   -3.4510   -0.7670  -18.9190 C   0  0  0  0  0  0  0  0  0  0  0  0
   -2.2050   -0.3630  -18.4280 C   0  0  0  0  0  0  0  0  0  0  0  0
   -8.4920   -0.7070  -17.6660 C   0  0  0  0  0  0  0  0  0  0  0  0
   -3.6340   -0.0390  -20.0440 N   0  0  0  0  0  0  0  0  0  0  0  0
   -9.8830   -4.5730  -17.3010 O   0  0  0  0  0  0  0  0  0  0  0  0
   -7.5110   -1.9590  -17.8900 C   0  0  2  0  0  0  0  0  0  0  0  0
   -8.4080   -3.1160  -18.5450 C   0  0  0  0  0  0  0  0  0  0  0  0
   -8.4100   -4.1270  -15.0480 C   0  0  0  0  0  0  0  0  0  0  0  0
   -4.2540   -1.6980  -18.3020 C   0  0  0  0  0  0  0  0  0  0  0  0
   -3.7630   -2.2660  -17.0860 C   0  0  0  0  0  0  0  0  0  0  0  0
   -9.0960   -3.6410  -17.2880 C   0  0  0  0  0  0  0  0  0  0  0  0
   -2.5700   -1.7940  -16.6070 C   0  0  0  0  0  0  0  0  0  0  0  0
   -9.3490   -2.1610  -15.2730 O   0  0  0  0  0  0  0  0  0  0  0  0
   -7.2390   -2.3950  -16.4530 C   0  0  0  0  0  0  0  0  0  0  0  0
   -8.5780   -3.0550  -16.0920 C   0  0  1  0  0  0  0  0  0  0  0  0
   -1.7560   -0.8300  -17.2190 C   0  0  0  0  0  0  0  0  0  0  0  0
   -1.6280    0.5030  -19.3380 O   0  0  0  0  0  0  0  0  0  0  0  0
   -1.9490   -2.4660  -15.0160 Cl  0  0  0  0  0  0  0  0  0  0  0  0
   -5.3400   -2.1860  -18.9710 N   0  0  0  0  0  0  0  0  0  0  0  0
   -6.5700   -1.4310  -19.0030 C   0  0  0  0  0  0  0  0  0  0  0  0
  1  5  2  0
  1 18  1  0
  2  3  2  0
  2 10  1  0
  3 17  1  0
  5  2  1  0
  6 12  2  0
  7  4  1  1
  7 15  1  0
  8  7  1  0
  8 12  1  0
 10 11  2  0
 11 13  1  0
 12 16  1  0
 13 19  1  0
 15 16  1  0
 16 14  1  0
 16  9  1  1
 17 13  2  0
 18  3  1  0
 20 10  1  0
 21 20  1  0
 21  7  1  0
M  END
$$$$

     RDKit          3D

 21 24  0  0  0  0  0  0  0  0999 V2000
   -2.7310    0.8350  -20.0300 N   0  0  0  0  0  0  0  0  0  0  0  0
   -3.5930   -0.7410  -18.7740 C   0  0  1  0  0  0  0  0  0  0  0  0
   -2.5320   -0.1500  -18.1250 C   0  0  0  0  0  0  0  0  0  0  0  0
   -8.2360   -0.2250  -17.6710 C   0  0  0  0  0  0  0  0  0  0  0  0
   -3.6570   -0.1170  -19.9580 N   0  0  0  0  0  0  0  0  0  0  0  0
   -9.7200   -4.4930  -16.6540 O   0  0  0  0  0  0  0  0  0  0  0  0
   -7.5260   -1.5400  -17.9800 C   0  0  2  0  0  0  0  0  0  0  0  0
   -7.7160   -2.2720  -19.2560 C   0  0  0  0  0  0  0  0  0  0  0  0
   -7.6840   -3.8870  -15.3600 O   0  0  0  0  0  0  0  0  0  0  0  0
   -4.2680   -1.7910  -18.1930 C   0  0  0  0  0  0  0  0  0  0  0  0
   -3.8630   -2.3020  -16.9880 C   0  0  0  0  0  0  0  0  0  0  0  0
   -9.2550   -3.1950  -17.0870 C   0  0  1  0  0  0  0  0  0  0  0  0
   -2.6850   -1.7410  -16.3630 C   0  0  0  0  0  0  0  0  0  0  0  0
   -9.1490   -2.2890  -16.1010 N   0  0  0  0  0  0  0  0  0  0  0  0
   -7.0820   -2.2140  -16.7550 C   0  0  0  0  0  0  0  0  0  0  0  0
   -8.1100   -3.1900  -16.3060 C   0  0  1  0  0  0  0  0  0  0  0  0
   -2.1630   -0.5740  -16.8280 C   0  0  0  0  0  0  0  0  0  0  0  0
   -2.0710    0.8270  -18.9070 N   0  0  0  0  0  0  0  0  0  0  0  0
   -2.1060   -2.4020  -15.1840 C   0  0  0  0  0  0  0  0  0  0  0  0
   -5.3280   -2.4270  -18.8740 O   0  0  0  0  0  0  0  0  0  0  0  0
   -6.4530   -1.5740  -19.1330 C   0  0  2  0  0  0  0  0  0  0  0  0
  1  5  2  0
  1 18  1  0
  2  5  1  6
  2 10  1  0
  2  3  1  0
  3 17  1  0
  7  4  1  1
  7 15  1  0
  8 21  1  0
  8  7  1  0
 10 11  2  0
 11 13  1  0
 12  6  1  1
 12 16  1  0
 12 14  1  0
 13 19  1  0
 15 16  1  0
 16 14  1  0
 16  9  1  1
 17 13  2  0
 18  3  2  0
 20 10  1  0
 21 20  1  1
 21  7  1  0
M  END
$$$$

     RDKit          3D

 21 23  0  0  0  0  0  0  0  0999 V2000
   -2.3900    0.7190  -20.0600 C   0  0  0  0  0  0  0  0  0  0  0  0
   -3.5010   -0.8790  -18.9630 C   0  0  0  0  0  0  0  0  0  0  0  0
   -2.2770   -0.5420  -18.4050 C   0  0  0  0  0  0  0  0  0  0  0  0
   -8.5230   -0.8090  -17.8000 C   0  0  0  0  0  0  0  0  0  0  0  0
   -3.6630   -0.1260  -20.2780 S   0  0  0  0  0  0  0  0  0  0  0  0
   -9.6300   -4.5230  -17.2540 O   0  0  0  0  0  0  0  0  0  0  0  0
   -7.5100   -1.9080  -17.9350 C   0  0  2  0  0  0  0  0  0  0  0  0
   -8.1260   -3.0840  -18.4550 C   0  0  0  0  0  0  0  0  0  0  0  0
   -8.0550   -3.7130  -14.9040 C   0  0  0  0  0  0  0  0  0  0  0  0
   -4.2900   -1.8410  -18.3390 C   0  0  0  0  0  0  0  0  0  0  0  0
   -3.9000   -2.4700  -17.1570 C   0  0  0  0  0  0  0  0  0  0  0  0
   -8.6590   -3.7500  -17.2680 C   0  0  0  0  0  0  0  0  0  0  0  0
   -2.6240   -2.0910  -16.5900 C   0  0  0  0  0  0  0  0  0  0  0  0
   -9.4690   -2.1390  -15.8630 F   0  0  0  0  0  0  0  0  0  0  0  0
   -7.2790   -2.2430  -16.4710 C   0  0  0  0  0  0  0  0  0  0  0  0
   -8.4460   -2.9630  -15.9990 C   0  0  1  0  0  0  0  0  0  0  0  0
   -1.9100   -0.9770  -17.1500 C   0  0  0  0  0  0  0  0  0  0  0  0
   -1.6780    0.5700  -19.0160 N   0  0  0  0  0  0  0  0  0  0  0  0
   -2.1670   -2.7720  -15.4840 C   0  0  0  0  0  0  0  0  0  0  0  0
   -5.4160   -2.1580  -19.0670 N   0  0  0  0  0  0  0  0  0  0  0  0
   -6.5070   -1.3080  -18.9060 C   0  0  0  0  0  0  0  0  0  0  0  0
  1 18  1  0
  2  3  2  0
  2 10  1  0
  3 17  1  0
  5  1  1  0
  5  2  1  0
  7  4  1  1
  7 15  1  0
  8  7  1  0
  8 12  1  0
 10 11  2  0
 11 13  1  0
 12  6  2  0
 12 16  1  0
 13 19  1  0
 15 16  1  0
 16 14  1  0
 16  9  1  1
 17 13  2  0
 18  3  1  0
 20 21  1  0
 20 10  1  0
 21  7  1  0
M  END
$$$$

     RDKit          3D

 21 22  0  0  0  0  0  0  0  0999 V2000
   -1.8830    0.6960  -19.7890 C   0  0  0  0  0  0  0  0  0  0  0  0
   -3.2000   -0.9900  -18.6410 C   0  0  0  0  0  0  0  0  0  0  0  0
   -1.9980   -0.5720  -18.0370 C   0  0  0  0  0  0  0  0  0  0  0  0
   -8.2630   -0.9220  -18.0220 O   0  0  0  0  0  0  0  0  0  0  0  0
   -3.3400   -0.1790  -20.0780 S   0  0  0  0  0  0  0  0  0  0  0  0
   -9.2610   -4.0790  -17.9170 N   0  0  0  0  0  0  0  0  0  0  0  0
   -7.4470   -1.8190  -17.6710 C   0  0  0  0  0  0  0  0  0  0  0  0
   -7.1750   -2.5830  -19.7510 O   0  0  0  0  0  0  0  0  0  0  0  0
   -8.2000   -4.1670  -15.2610 F   0  0  0  0  0  0  0  0  0  0  0  0
   -4.0740   -1.8160  -18.0890 C   0  0  0  0  0  0  0  0  0  0  0  0
   -3.7020   -2.3720  -16.9250 C   0  0  0  0  0  0  0  0  0  0  0  0
   -9.5510   -3.2770  -16.8680 C   0  0  0  0  0  0  0  0  0  0  0  0
   -2.5030   -2.0700  -16.2670 C   0  0  0  0  0  0  0  0  0  0  0  0
   -9.0510   -2.0260  -14.9680 F   0  0  0  0  0  0  0  0  0  0  0  0
   -7.2970   -2.3750  -16.4480 C   0  0  0  0  0  0  0  0  0  0  0  0
   -8.5120   -2.9740  -15.8560 C   0  0  1  0  0  0  0  0  0  0  0  0
   -1.7070   -1.0850  -16.8730 C   0  0  0  0  0  0  0  0  0  0  0  0
   -1.2020    0.3700  -18.6450 O   0  0  0  0  0  0  0  0  0  0  0  0
   -2.0870   -2.7470  -14.9940 C   0  0  0  0  0  0  0  0  0  0  0  0
   -5.2520   -2.2660  -18.6060 N   0  0  0  0  0  0  0  0  0  0  0  0
   -6.6040   -2.2120  -18.7560 C   0  0  0  0  0  0  0  0  0  0  0  0
  1 18  1  0
  2 10  1  0
  2  3  2  0
  3 17  1  0
  4  7  2  0
  5  1  1  0
  5  2  1  0
  6 12  1  0
  7 15  1  0
  8 21  2  0
 10 11  2  0
 11 13  1  0
 12 16  1  0
 13 19  1  0
 15 16  1  0
 16  9  1  1
 16 14  1  0
 17 13  2  0
 18  3  1  0
 20 10  1  0
 21 20  1  0
 21  7  1  0
M  END
$$$$

     RDKit          3D

 21 23  0  0  0  0  0  0  0  0999 V2000
   -2.5080    0.6050  -19.9790 C   0  0  0  0  0  0  0  0  0  0  0  0
   -3.1050   -1.1070  -18.7650 N   0  0  0  0  0  0  0  0  0  0  0  0
   -2.0920   -0.5280  -18.2500 C   0  0  1  0  0  0  0  0  0  0  0  0
   -8.0630   -0.9990  -17.6620 F   0  0  0  0  0  0  0  0  0  0  0  0
   -3.3020   -0.4490  -19.8030 C   0  0  0  0  0  0  0  0  0  0  0  0
   -9.5740   -4.5460  -18.0050 O   0  0  0  0  0  0  0  0  0  0  0  0
   -7.2920   -1.8460  -17.9170 C   0  0  2  0  0  0  0  0  0  0  0  0
   -7.3370   -2.6960  -19.2030 C   0  0  0  0  0  0  0  0  0  0  0  0
   -8.1460   -4.3990  -15.3990 C   0  0  0  0  0  0  0  0  0  0  0  0
   -3.8990   -1.9860  -18.1920 C   0  0  0  0  0  0  0  0  0  0  0  0
   -3.6100   -2.3270  -16.8950 C   0  0  0  0  0  0  0  0  0  0  0  0
   -9.4840   -3.2750  -17.2430 C   0  0  0  0  0  0  0  0  0  0  0  0
   -2.4710   -1.7200  -16.2280 C   0  0  0  0  0  0  0  0  0  0  0  0
   -8.8090   -2.2130  -15.2140 F   0  0  0  0  0  0  0  0  0  0  0  0
   -7.0230   -2.7800  -16.7810 C   0  0  0  0  0  0  0  0  0  0  0  0
   -8.4120   -3.1290  -16.1890 C   0  0  1  0  0  0  0  0  0  0  0  0
   -1.6380   -0.8840  -17.0530 O   0  0  0  0  0  0  0  0  0  0  0  0
   -1.4260    0.3610  -19.1250 O   0  0  0  0  0  0  0  0  0  0  0  0
   -1.8350   -2.2030  -15.1450 C   0  0  0  0  0  0  0  0  0  0  0  0
   -4.8630   -2.5860  -18.7100 O   0  0  0  0  0  0  0  0  0  0  0  0
   -6.0860   -1.8170  -18.8530 C   0  0  2  0  0  0  0  0  0  0  0  0
  1  5  1  0
  1 18  1  0
  2  5  1  0
  2  3  1  0
  2 10  1  0
  3 18  1  6
  3 17  1  0
  6 12  1  0
  7  4  1  1
  7 15  1  0
  8 21  1  0
  8  7  1  0
 10 20  1  0
 10 11  1  0
 11 13  2  0
 12 16  1  0
 13 19  1  0
 15 16  1  0
 16  9  1  1
 16 14  1  0
 17 13  1  0
 21 20  1  1
 21  7  1  0
M  END
$$$$

     RDKit          3D

 21 22  0  0  0  0  0  0  0  0999 V2000
   -2.1820    0.4800  -20.0620 C   0  0  0  0  0  0  0  0  0  0  0  0
   -3.3110   -1.0140  -18.7710 C   0  0  0  0  0  0  0  0  0  0  0  0
   -2.0970   -0.7150  -18.1810 C   0  0  0  0  0  0  0  0  0  0  0  0
   -8.1380   -0.5830  -17.2610 O   0  0  0  0  0  0  0  0  0  0  0  0
   -3.4590   -0.3370  -19.9940 C   0  0  0  0  0  0  0  0  0  0  0  0
   -9.2050   -4.5860  -17.6120 O   0  0  0  0  0  0  0  0  0  0  0  0
   -6.9720   -1.4330  -17.5740 C   0  0  1  0  0  0  0  0  0  0  0  0
   -7.6830   -2.6640  -19.4700 C   0  0  0  0  0  0  0  0  0  0  0  0
   -8.2180   -3.8280  -15.0010 F   0  0  0  0  0  0  0  0  0  0  0  0
   -4.2080   -1.9440  -18.2470 C   0  0  0  0  0  0  0  0  0  0  0  0
   -3.8900   -2.4310  -16.9600 C   0  0  0  0  0  0  0  0  0  0  0  0
   -9.5920   -3.4520  -16.8580 C   0  0  0  0  0  0  0  0  0  0  0  0
   -2.8060   -2.0140  -16.2880 C   0  0  0  0  0  0  0  0  0  0  0  0
   -9.0290   -1.7650  -15.4890 F   0  0  0  0  0  0  0  0  0  0  0  0
   -7.1370   -2.6520  -16.6050 C   0  0  0  0  0  0  0  0  0  0  0  0
   -8.4190   -2.9380  -15.9720 C   0  0  1  0  0  0  0  0  0  0  0  0
   -1.8900   -1.1180  -16.8570 C   0  0  0  0  0  0  0  0  0  0  0  0
   -1.1870   -0.0860  -19.0630 C   0  0  0  0  0  0  0  0  0  0  0  0
   -2.5530   -2.5210  -14.8480 C   0  0  0  0  0  0  0  0  0  0  0  0
   -5.3360   -2.3790  -18.9570 O   0  0  0  0  0  0  0  0  0  0  0  0
   -6.6260   -1.7450  -18.9460 C   0  0  2  0  0  0  0  0  0  0  0  0
  1  5  1  0
  1 18  1  0
  2 10  2  0
  2  3  1  0
  3 17  2  0
  5  2  1  0
  6 12  1  0
  7  4  1  6
  7 15  1  0
 10 11  1  0
 11 13  2  0
 12 16  1  0
 13 19  1  0
 15 16  1  0
 16 14  1  1
 16  9  1  0
 17 13  1  0
 18  3  1  0
 20 21  1  0
 20 10  1  0
 21  8  1  1
 21  7  1  0
M  END
$$$$

     RDKit          3D

 19 22  0  0  0  0  0  0  0  0999 V2000
   -1.4650   -1.0190  -17.6880 C   0  0  0  0  0  0  0  0  0  0  0  0
   -3.6470   -1.8240  -17.3130 C   0  0  0  0  0  0  0  0  0  0  0  0
   -2.7500   -1.2080  -18.1040 C   0  0  0  0  0  0  0  0  0  0  0  0
   -8.2100   -3.2630  -16.3290 C   0  0  0  0  0  0  0  0  0  0  0  0
   -4.9650   -1.6960  -17.8910 C   0  0  0  0  0  0  0  0  0  0  0  0
   -6.2030   -3.3480  -15.5310 C   0  0  0  0  0  0  0  0  0  0  0  0
   -6.9520   -0.9600  -19.7680 C   0  0  0  0  0  0  0  0  0  0  0  0
   -4.7000   -0.9840  -19.0850 C   0  0  0  0  0  0  0  0  0  0  0  0
   -9.5180   -3.0350  -16.9800 C   0  0  0  0  0  0  0  0  0  0  0  0
   -3.4000   -0.7560  -19.1720 N   0  0  0  0  0  0  0  0  0  0  0  0
   -7.0200   -3.9860  -14.7030 O   0  0  0  0  0  0  0  0  0  0  0  0
   -3.2960   -2.4450  -16.1100 C   0  0  0  0  0  0  0  0  0  0  0  0
   -5.6170   -0.6680  -20.0360 C   0  0  0  0  0  0  0  0  0  0  0  0
   -6.3300   -2.0270  -17.6030 C   0  0  0  0  0  0  0  0  0  0  0  0
   -1.0000   -1.7140  -16.4930 C   0  0  0  0  0  0  0  0  0  0  0  0
   -6.9690   -2.8590  -16.5120 C   0  0  0  0  0  0  0  0  0  0  0  0
   -8.2560   -4.0430  -15.1420 N   0  0  0  0  0  0  0  0  0  0  0  0
   -7.2670   -1.6080  -18.5510 C   0  0  0  0  0  0  0  0  0  0  0  0
   -1.9530   -2.3760  -15.7660 C   0  0  0  0  0  0  0  0  0  0  0  0
  1 15  1  0
  2 12  1  0
  3  1  2  0
  3  2  1  0
  4 17  2  0
  5 14  1  0
  5  2  2  0
  6 11  1  0
  7 18  1  0
  8  5  1  0
  9  4  1  0
 10  8  2  0
 10  3  1  0
 12 19  2  0
 13  7  2  0
 13  8  1  0
 14 16  1  0
 15 19  1  0
 16  4  1  0
 16  6  2  0
 17 11  1  0
 18 14  2  0
M  END
$$$$

     RDKit          3D

 19 22  0  0  0  0  0  0  0  0999 V2000
   -1.3060   -1.2310  -17.7300 C   0  0  0  0  0  0  0  0  0  0  0  0
   -3.6890   -1.7850  -17.2480 C   0  0  0  0  0  0  0  0  0  0  0  0
   -2.7360   -1.2990  -18.1540 C   0  0  0  0  0  0  0  0  0  0  0  0
   -8.1610   -3.3150  -16.3380 C   0  0  0  0  0  0  0  0  0  0  0  0
   -4.9800   -1.6620  -17.8970 C   0  0  0  0  0  0  0  0  0  0  0  0
   -6.0650   -3.0210  -15.4470 N   0  0  0  0  0  0  0  0  0  0  0  0
   -6.9170   -0.8550  -19.7980 C   0  0  0  0  0  0  0  0  0  0  0  0
   -4.6370   -1.0560  -19.1270 C   0  0  0  0  0  0  0  0  0  0  0  0
   -9.2900   -3.4350  -17.1010 O   0  0  0  0  0  0  0  0  0  0  0  0
   -3.3560   -0.8740  -19.2600 N   0  0  0  0  0  0  0  0  0  0  0  0
   -6.7570   -3.7990  -14.6490 N   0  0  0  0  0  0  0  0  0  0  0  0
   -3.2990   -2.2670  -15.9080 C   0  0  0  0  0  0  0  0  0  0  0  0
   -5.6020   -0.6370  -20.1170 C   0  0  0  0  0  0  0  0  0  0  0  0
   -6.3530   -1.9450  -17.6840 C   0  0  0  0  0  0  0  0  0  0  0  0
   -0.9780   -1.7060  -16.5260 C   0  0  0  0  0  0  0  0  0  0  0  0
   -6.8150   -2.6800  -16.4820 C   0  0  0  0  0  0  0  0  0  0  0  0
   -8.1000   -3.9230  -15.1440 N   0  0  0  0  0  0  0  0  0  0  0  0
   -7.2850   -1.4690  -18.6540 C   0  0  0  0  0  0  0  0  0  0  0  0
   -1.9220   -2.2200  -15.6340 C   0  0  0  0  0  0  0  0  0  0  0  0
  1 15  1  0
  2 12  1  0
  3  1  2  0
  3  2  1  0
  4 17  1  0
  5 14  1  0
  5  2  2  0
  6 11  1  0
  7 18  1  0
  8  5  1  0
  9  4  2  0
 10  8  2  0
 10  3  1  0
 12 19  2  0
 13  7  2  0
 13  8  1  0
 14 16  1  0
 15 19  1  0
 16  4  1  0
 16  6  2  0
 17 11  2  0
 18 14  2  0
M  END
$$$$

     RDKit          3D

 19 22  0  0  0  0  0  0  0  0999 V2000
   -1.2950   -1.1450  -17.3160 C   0  0  0  0  0  0  0  0  0  0  0  0
   -3.7100   -1.9100  -16.9520 C   0  0  0  0  0  0  0  0  0  0  0  0
   -2.6070   -1.2610  -17.7520 C   0  0  0  0  0  0  0  0  0  0  0  0
   -8.3080   -3.2100  -16.1480 C   0  0  0  0  0  0  0  0  0  0  0  0
   -4.9300   -1.8080  -17.7430 C   0  0  0  0  0  0  0  0  0  0  0  0
   -6.2200   -3.5170  -15.3000 C   0  0  0  0  0  0  0  0  0  0  0  0
   -6.8840   -0.9260  -19.7200 C   0  0  0  0  0  0  0  0  0  0  0  0
   -4.5600   -1.1090  -18.9720 C   0  0  0  0  0  0  0  0  0  0  0  0
   -9.4110   -3.0350  -16.9670 N   0  0  0  0  0  0  0  0  0  0  0  0
   -3.1520   -0.8940  -18.9880 O   0  0  0  0  0  0  0  0  0  0  0  0
   -7.1810   -4.0310  -14.4310 O   0  0  0  0  0  0  0  0  0  0  0  0
   -3.2820   -2.4730  -15.6410 C   0  0  0  0  0  0  0  0  0  0  0  0
   -5.5000   -0.6680  -19.9920 C   0  0  0  0  0  0  0  0  0  0  0  0
   -6.3820   -2.1200  -17.5520 C   0  0  0  0  0  0  0  0  0  0  0  0
   -0.9410   -1.4930  -15.9140 C   0  0  0  0  0  0  0  0  0  0  0  0
   -6.9210   -2.9180  -16.4440 C   0  0  0  0  0  0  0  0  0  0  0  0
   -8.4370   -3.8130  -14.9600 N   0  0  0  0  0  0  0  0  0  0  0  0
   -7.2860   -1.6030  -18.5690 C   0  0  0  0  0  0  0  0  0  0  0  0
   -1.9820   -2.2200  -15.1000 C   0  0  0  0  0  0  0  0  0  0  0  0
  1 15  2  0
  2 12  1  0
  3  1  1  0
  3  2  2  0
  4 17  2  0
  5 14  1  0
  5  2  1  0
  6 11  1  0
  7 18  1  0
  8  5  2  0
  9  4  1  0
 10  8  1  0
 10  3  1  0
 12 19  2  0
 13  7  2  0
 13  8  1  0
 14 16  1  0
 15 19  1  0
 16  4  1  0
 16  6  2  0
 17 11  1  0
 18 14  2  0
M  END
$$$$

     RDKit          3D

 19 22  0  0  0  0  0  0  0  0999 V2000
   -1.1540   -1.3480  -17.4180 C   0  0  0  0  0  0  0  0  0  0  0  0
   -3.5010   -1.8960  -17.0090 C   0  0  0  0  0  0  0  0  0  0  0  0
   -2.5180   -1.3030  -17.8350 C   0  0  0  0  0  0  0  0  0  0  0  0
   -8.1800   -2.9940  -16.1450 C   0  0  0  0  0  0  0  0  0  0  0  0
   -4.8500   -1.6390  -17.8610 C   0  0  0  0  0  0  0  0  0  0  0  0
   -5.9860   -3.4200  -15.4800 C   0  0  0  0  0  0  0  0  0  0  0  0
   -6.7440   -0.8360  -19.7090 C   0  0  0  0  0  0  0  0  0  0  0  0
   -4.3890   -0.9930  -18.9890 C   0  0  0  0  0  0  0  0  0  0  0  0
   -9.2650   -2.5940  -16.6640 O   0  0  0  0  0  0  0  0  0  0  0  0
   -3.0600   -0.8710  -18.9920 N   0  0  0  0  0  0  0  0  0  0  0  0
   -6.9600   -4.1960  -14.8060 N   0  0  0  0  0  0  0  0  0  0  0  0
   -3.2210   -2.4430  -15.7590 C   0  0  0  0  0  0  0  0  0  0  0  0
   -5.3950   -0.5750  -19.9410 C   0  0  0  0  0  0  0  0  0  0  0  0
   -6.2320   -1.9390  -17.5900 C   0  0  0  0  0  0  0  0  0  0  0  0
   -0.8430   -1.8810  -16.1210 C   0  0  0  0  0  0  0  0  0  0  0  0
   -6.7810   -2.7420  -16.5290 C   0  0  2  0  0  0  0  0  0  0  0  0
   -8.2270   -3.8950  -15.0970 N   0  0  0  0  0  0  0  0  0  0  0  0
   -7.1130   -1.4620  -18.5920 C   0  0  0  0  0  0  0  0  0  0  0  0
   -1.8970   -2.4140  -15.3270 C   0  0  0  0  0  0  0  0  0  0  0  0
  1 15  1  0
  2 12  1  0
  3  1  2  0
  3  2  1  0
  4 17  1  0
  5 14  1  0
  5  2  2  0
  6 11  1  0
  7 18  1  0
  8  5  1  0
  9  4  2  0
 10  8  2  0
 10  3  1  0
 12 19  2  0
 13  7  2  0
 13  8  1  0
 15 19  1  0
 16 14  1  1
 16  4  1  0
 16  6  1  0
 17 11  1  0
 18 14  2  0
M  END
$$$$

     RDKit          3D

 19 22  0  0  0  0  0  0  0  0999 V2000
   -1.1640   -1.5560  -17.5070 C   0  0  0  0  0  0  0  0  0  0  0  0
   -3.5380   -1.9850  -17.0710 C   0  0  0  0  0  0  0  0  0  0  0  0
   -2.4870   -1.6460  -17.9820 C   0  0  0  0  0  0  0  0  0  0  0  0
   -8.0580   -3.2760  -16.4640 N   0  0  0  0  0  0  0  0  0  0  0  0
   -4.7510   -1.6990  -17.7820 C   0  0  0  0  0  0  0  0  0  0  0  0
   -6.1570   -3.0030  -15.3490 N   0  0  0  0  0  0  0  0  0  0  0  0
   -6.5930   -0.7630  -19.6720 C   0  0  0  0  0  0  0  0  0  0  0  0
   -4.3480   -1.1430  -19.0210 C   0  0  0  0  0  0  0  0  0  0  0  0
   -9.0170   -3.1290  -17.4490 N   0  0  0  0  0  0  0  0  0  0  0  0
   -3.0150   -1.2010  -19.0960 N   0  0  0  0  0  0  0  0  0  0  0  0
   -7.0130   -3.8770  -14.6540 O   0  0  0  0  0  0  0  0  0  0  0  0
   -3.2150   -2.3480  -15.6600 C   0  0  0  0  0  0  0  0  0  0  0  0
   -5.2770   -0.6190  -19.9080 C   0  0  0  0  0  0  0  0  0  0  0  0
   -6.1290   -1.9030  -17.6110 C   0  0  0  0  0  0  0  0  0  0  0  0
   -0.8910   -1.9370  -16.1970 C   0  0  0  0  0  0  0  0  0  0  0  0
   -6.7310   -2.7000  -16.5100 C   0  0  0  0  0  0  0  0  0  0  0  0
   -8.1540   -3.9840  -15.3610 N   0  0  0  0  0  0  0  0  0  0  0  0
   -7.0020   -1.3990  -18.4820 C   0  0  0  0  0  0  0  0  0  0  0  0
   -1.8410   -2.3770  -15.3040 C   0  0  0  0  0  0  0  0  0  0  0  0
  1 15  1  0
  2 12  1  0
  3  1  2  0
  3  2  1  0
  4 17  1  0
  5 14  1  0
  5  2  2  0
  6 11  1  0
  7 18  1  0
  8  5  1  0
  9  4  1  0
 10  8  2  0
 10  3  1  0
 12 19  2  0
 13  7  2  0
 13  8  1  0
 14 16  1  0
 15 19  1  0
 16  4  1  0
 16  6  2  0
 17 11  1  0
 18 14  2  0
M  END
$$$$

     RDKit          3D

 19 22  0  0  0  0  0  0  0  0999 V2000
   -1.1160   -1.4910  -17.7270 C   0  0  0  0  0  0  0  0  0  0  0  0
   -3.4330   -1.8930  -17.2580 C   0  0  0  0  0  0  0  0  0  0  0  0
   -2.4530   -1.4750  -18.0810 C   0  0  0  0  0  0  0  0  0  0  0  0
   -8.2690   -2.9950  -16.4690 C   0  0  0  0  0  0  0  0  0  0  0  0
   -4.7560   -1.7150  -17.8660 C   0  0  0  0  0  0  0  0  0  0  0  0
   -6.2640   -3.0420  -15.4070 N   0  0  0  0  0  0  0  0  0  0  0  0
   -6.7710   -0.8180  -19.6170 C   0  0  0  0  0  0  0  0  0  0  0  0
   -4.5310   -1.0160  -19.0700 C   0  0  0  0  0  0  0  0  0  0  0  0
   -9.4370   -2.7690  -17.4430 C   0  0  0  0  0  0  0  0  0  0  0  0
   -3.0440   -0.7650  -19.3000 C   0  0  0  0  0  0  0  0  0  0  0  0
   -7.2880   -3.8380  -14.7250 N   0  0  0  0  0  0  0  0  0  0  0  0
   -3.0900   -2.3850  -15.9570 C   0  0  0  0  0  0  0  0  0  0  0  0
   -5.4640   -0.5340  -19.9390 N   0  0  0  0  0  0  0  0  0  0  0  0
   -6.2120   -1.9490  -17.5710 C   0  0  0  0  0  0  0  0  0  0  0  0
   -0.7990   -2.0170  -16.4240 C   0  0  0  0  0  0  0  0  0  0  0  0
   -6.8420   -2.6870  -16.5750 C   0  0  0  0  0  0  0  0  0  0  0  0
   -8.4630   -3.7590  -15.3700 N   0  0  0  0  0  0  0  0  0  0  0  0
   -7.1060   -1.5060  -18.5700 N   0  0  0  0  0  0  0  0  0  0  0  0
   -1.7960   -2.4400  -15.5800 C   0  0  0  0  0  0  0  0  0  0  0  0
  1 15  1  0
  2 12  1  0
  3  1  2  0
  3  2  1  0
  4 17  1  0
  5 14  1  0
  5  2  2  0
  6 11  1  0
  7 18  1  0
  8  5  1  0
  9  4  1  0
 10  8  2  0
 10  3  1  0
 12 19  2  0
 13  7  2  0
 13  8  1  0
 14 16  1  0
 15 19  1  0
 16  4  2  0
 16  6  1  0
 17 11  1  0
 18 14  2  0
M  END
$$$$

     RDKit          3D

 19 22  0  0  0  0  0  0  0  0999 V2000
   -1.3190   -1.4750  -17.6320 C   0  0  0  0  0  0  0  0  0  0  0  0
   -3.6540   -1.9910  -17.2370 C   0  0  0  0  0  0  0  0  0  0  0  0
   -2.6480   -1.4340  -18.0780 C   0  0  0  0  0  0  0  0  0  0  0  0
   -8.1560   -3.1200  -16.4300 C   0  0  0  0  0  0  0  0  0  0  0  0
   -4.9410   -1.7790  -17.9390 C   0  0  0  0  0  0  0  0  0  0  0  0
   -6.0970   -3.2180  -15.5250 C   0  0  0  0  0  0  0  0  0  0  0  0
   -6.8850   -0.7600  -19.6870 C   0  0  0  0  0  0  0  0  0  0  0  0
   -4.6250   -1.0420  -19.0550 C   0  0  0  0  0  0  0  0  0  0  0  0
   -9.1920   -2.9160  -17.1410 N   0  0  0  0  0  0  0  0  0  0  0  0
   -3.2510   -0.9760  -19.1570 N   0  0  0  0  0  0  0  0  0  0  0  0
   -6.9920   -3.8180  -14.7840 N   0  0  0  0  0  0  0  0  0  0  0  0
   -3.2870   -2.4790  -16.0020 C   0  0  0  0  0  0  0  0  0  0  0  0
   -5.5850   -0.5560  -19.9700 C   0  0  0  0  0  0  0  0  0  0  0  0
   -6.3250   -2.0510  -17.7290 C   0  0  0  0  0  0  0  0  0  0  0  0
   -1.0650   -1.7920  -16.3580 C   0  0  0  0  0  0  0  0  0  0  0  0
   -6.7910   -2.7230  -16.6350 C   0  0  0  0  0  0  0  0  0  0  0  0
   -8.1340   -3.9030  -15.3490 N   0  0  0  0  0  0  0  0  0  0  0  0
   -7.3050   -1.4870  -18.6220 C   0  0  0  0  0  0  0  0  0  0  0  0
   -2.0380   -2.3270  -15.4970 C   0  0  0  0  0  0  0  0  0  0  0  0
  1 15  1  0
  2 12  1  0
  3  1  2  0
  3  2  1  0
  4 17  1  0
  5 14  1  0
  5  2  2  0
  6 11  1  0
  7 18  1  0
  8  5  1  0
  9  4  2  0
 10  8  2  0
 10  3  1  0
 12 19  2  0
 13  7  2  0
 13  8  1  0
 15 19  1  0
 16 14  1  0
 16  4  1  0
 16  6  1  0
 17 11  1  0
 18 14  2  0
M  END
$$$$

     RDKit          3D

 19 22  0  0  0  0  0  0  0  0999 V2000
   -1.3840   -1.4250  -17.4500 C   0  0  0  0  0  0  0  0  0  0  0  0
   -3.6910   -1.9740  -17.1610 C   0  0  0  0  0  0  0  0  0  0  0  0
   -2.6810   -1.3760  -17.9330 C   0  0  0  0  0  0  0  0  0  0  0  0
   -8.2710   -3.2520  -16.3220 C   0  0  0  0  0  0  0  0  0  0  0  0
   -4.9890   -1.7360  -17.9020 C   0  0  0  0  0  0  0  0  0  0  0  0
   -6.3070   -3.3870  -15.3380 C   0  0  0  0  0  0  0  0  0  0  0  0
   -6.7740   -0.8530  -19.6070 C   0  0  0  0  0  0  0  0  0  0  0  0
   -4.5880   -1.1390  -19.0120 C   0  0  0  0  0  0  0  0  0  0  0  0
   -9.2680   -2.9470  -17.0110 O   0  0  0  0  0  0  0  0  0  0  0  0
   -3.2510   -0.9410  -19.0980 N   0  0  0  0  0  0  0  0  0  0  0  0
   -7.1560   -4.0480  -14.5630 N   0  0  0  0  0  0  0  0  0  0  0  0
   -3.3250   -2.5430  -16.0430 C   0  0  0  0  0  0  0  0  0  0  0  0
   -5.5400   -0.6910  -19.9200 N   0  0  0  0  0  0  0  0  0  0  0  0
   -6.3230   -2.0210  -17.6590 C   0  0  0  0  0  0  0  0  0  0  0  0
   -1.1220   -1.8840  -16.1730 C   0  0  0  0  0  0  0  0  0  0  0  0
   -6.9610   -2.8100  -16.5240 C   0  0  1  0  0  0  0  0  0  0  0  0
   -8.3730   -3.9550  -15.2050 N   0  0  0  0  0  0  0  0  0  0  0  0
   -7.1890   -1.4740  -18.5130 C   0  0  0  0  0  0  0  0  0  0  0  0
   -2.0920   -2.5070  -15.4840 C   0  0  0  0  0  0  0  0  0  0  0  0
  1 15  2  0
  2 12  1  0
  3  1  1  0
  3  2  2  0
  4 17  1  0
  5 14  2  0
  5  2  1  0
  6 11  2  0
  7 18  1  0
  8  5  1  0
  9  4  2  0
 10  8  2  0
 10  3  1  0
 12 19  2  0
 13  7  2  0
 13  8  1  0
 15 19  1  0
 16 14  1  6
 16  4  1  0
 16  6  1  0
 17 11  1  0
 18 14  1  0
M  END
$$$$

     RDKit          3D

 19 22  0  0  0  0  0  0  0  0999 V2000
   -1.2440   -1.2450  -17.3930 C   0  0  0  0  0  0  0  0  0  0  0  0
   -3.5670   -1.8110  -17.0240 C   0  0  0  0  0  0  0  0  0  0  0  0
   -2.6170   -1.2810  -17.7990 C   0  0  0  0  0  0  0  0  0  0  0  0
   -8.1180   -2.9590  -16.1810 C   0  0  0  0  0  0  0  0  0  0  0  0
   -4.8160   -1.6660  -17.7490 C   0  0  0  0  0  0  0  0  0  0  0  0
   -5.9760   -3.5660  -15.6250 C   0  0  0  0  0  0  0  0  0  0  0  0
   -6.6770   -0.9840  -19.6840 C   0  0  0  0  0  0  0  0  0  0  0  0
   -4.4970   -1.0210  -18.9150 C   0  0  0  0  0  0  0  0  0  0  0  0
   -9.2040   -2.4500  -16.7530 O   0  0  0  0  0  0  0  0  0  0  0  0
   -3.2260   -0.7940  -18.8430 N   0  0  0  0  0  0  0  0  0  0  0  0
   -6.8360   -4.0120  -14.7950 N   0  0  0  0  0  0  0  0  0  0  0  0
   -3.2550   -2.3900  -15.8500 C   0  0  0  0  0  0  0  0  0  0  0  0
   -5.3720   -0.6390  -19.8270 C   0  0  0  0  0  0  0  0  0  0  0  0
   -6.1500   -1.9630  -17.6010 C   0  0  0  0  0  0  0  0  0  0  0  0
   -0.9720   -1.8130  -16.2080 C   0  0  0  0  0  0  0  0  0  0  0  0
   -6.7790   -2.6020  -16.4440 C   0  0  1  0  0  0  0  0  0  0  0  0
   -8.1680   -3.7370  -15.0580 N   0  0  0  0  0  0  0  0  0  0  0  0
   -7.1450   -1.6090  -18.5210 C   0  0  0  0  0  0  0  0  0  0  0  0
   -1.9590   -2.3060  -15.4260 C   0  0  0  0  0  0  0  0  0  0  0  0
  1 15  1  0
  2 12  1  0
  3  1  2  0
  3  2  1  0
  4 17  1  0
  5 14  1  0
  5  2  2  0
  6 11  1  0
  7 18  1  0
  8 10  2  0
  8  5  1  0
  9  4  2  0
 10  3  1  0
 12 19  2  0
 13  7  2  0
 13  8  1  0
 15 19  1  0
 16 14  1  6
 16  4  1  0
 16  6  1  0
 17 11  1  0
 18 14  2  0
M  END
$$$$

     RDKit          3D

 19 22  0  0  0  0  0  0  0  0999 V2000
   -1.2400   -1.4220  -17.6740 C   0  0  0  0  0  0  0  0  0  0  0  0
   -3.6670   -1.9600  -17.2060 C   0  0  0  0  0  0  0  0  0  0  0  0
   -2.6130   -1.3990  -18.0550 C   0  0  0  0  0  0  0  0  0  0  0  0
   -8.4080   -3.3460  -16.5330 C   0  0  0  0  0  0  0  0  0  0  0  0
   -5.0340   -1.7640  -17.9130 C   0  0  0  0  0  0  0  0  0  0  0  0
   -6.3000   -3.3820  -15.5090 C   0  0  0  0  0  0  0  0  0  0  0  0
   -6.8130   -0.7160  -19.8070 C   0  0  0  0  0  0  0  0  0  0  0  0
   -4.6230   -1.0190  -19.2270 C   0  0  0  0  0  0  0  0  0  0  0  0
   -9.4310   -3.2430  -17.3730 O   0  0  0  0  0  0  0  0  0  0  0  0
   -3.1930   -0.9370  -19.2730 N   0  0  0  0  0  0  0  0  0  0  0  0
   -7.2440   -4.1580  -14.7980 N   0  0  0  0  0  0  0  0  0  0  0  0
   -3.2260   -2.5650  -15.9670 C   0  0  0  0  0  0  0  0  0  0  0  0
   -5.5240   -0.5260  -20.0720 N   0  0  0  0  0  0  0  0  0  0  0  0
   -6.4840   -1.9780  -17.7820 C   0  0  0  0  0  0  0  0  0  0  0  0
   -0.9260   -1.7480  -16.3990 C   0  0  0  0  0  0  0  0  0  0  0  0
   -7.0390   -2.9410  -16.5880 C   0  0  0  0  0  0  0  0  0  0  0  0
   -8.4730   -4.0340  -15.3800 N   0  0  0  0  0  0  0  0  0  0  0  0
   -7.3550   -1.4210  -18.7500 C   0  0  0  0  0  0  0  0  0  0  0  0
   -1.9420   -2.4590  -15.5930 C   0  0  0  0  0  0  0  0  0  0  0  0
  1 15  2  0
  2 12  1  0
  3  1  1  0
  3  2  2  0
  4 17  1  0
  5  8  1  0
  5 14  1  0
  5  2  1  0
  6 11  1  0
  7 18  1  0
  9  4  2  0
 10  8  2  0
 10  3  1  0
 12 19  2  0
 13  7  2  0
 13  8  1  0
 14 16  1  0
 15 19  1  0
 16  4  1  0
 16  6  2  0
 17 11  2  0
 18 14  2  0
M  END
$$$$

     RDKit          3D

 19 22  0  0  0  0  0  0  0  0999 V2000
   -1.3770   -1.2990  -17.2750 C   0  0  0  0  0  0  0  0  0  0  0  0
   -3.7370   -2.0580  -17.1350 C   0  0  0  0  0  0  0  0  0  0  0  0
   -2.7070   -1.5910  -17.8800 C   0  0  0  0  0  0  0  0  0  0  0  0
   -8.2870   -3.1870  -16.3620 C   0  0  0  0  0  0  0  0  0  0  0  0
   -4.9510   -1.8210  -17.7690 C   0  0  0  0  0  0  0  0  0  0  0  0
   -6.1140   -3.3200  -15.3880 N   0  0  0  0  0  0  0  0  0  0  0  0
   -6.7850   -0.7980  -19.4290 C   0  0  0  0  0  0  0  0  0  0  0  0
   -4.7320   -1.1070  -18.8720 C   0  0  0  0  0  0  0  0  0  0  0  0
   -9.5960   -2.8080  -17.3350 S   0  0  0  0  0  0  0  0  0  0  0  0
   -3.0060   -0.8900  -19.1560 S   0  0  0  0  0  0  0  0  0  0  0  0
   -6.9910   -4.0260  -14.7990 N   0  0  0  0  0  0  0  0  0  0  0  0
   -3.2890   -2.9520  -15.8550 C   0  0  0  0  0  0  0  0  0  0  0  0
   -5.5920   -0.6530  -19.6530 N   0  0  0  0  0  0  0  0  0  0  0  0
   -6.3090   -2.0140  -17.5720 C   0  0  0  0  0  0  0  0  0  0  0  0
   -1.2160   -1.8130  -16.2330 C   0  0  0  0  0  0  0  0  0  0  0  0
   -6.5910   -2.7620  -16.4710 C   0  0  0  0  0  0  0  0  0  0  0  0
   -8.2280   -3.9390  -15.3130 N   0  0  0  0  0  0  0  0  0  0  0  0
   -7.2470   -1.4520  -18.3190 N   0  0  0  0  0  0  0  0  0  0  0  0
   -2.2570   -2.3480  -15.1660 C   0  0  0  0  0  0  0  0  0  0  0  0
  1 15  1  0
  2 12  1  0
  3  1  1  0
  3  2  2  0
  4 17  1  0
  5 14  1  0
  5  2  1  0
  6 11  1  0
  7 18  1  0
  8  5  2  0
  9  4  2  0
 10  8  1  0
 10  3  1  0
 12 19  1  0
 13  7  2  0
 13  8  1  0
 14 16  1  0
 15 19  1  0
 16  4  1  0
 16  6  2  0
 17 11  2  0
 18 14  2  0
M  END
$$$$

     RDKit          3D

 19 22  0  0  0  0  0  0  0  0999 V2000
   -1.2640   -1.5000  -17.5650 C   0  0  0  0  0  0  0  0  0  0  0  0
   -3.7000   -1.8650  -16.9950 C   0  0  0  0  0  0  0  0  0  0  0  0
   -2.6230   -1.4220  -17.8840 C   0  0  0  0  0  0  0  0  0  0  0  0
   -8.3570   -3.0140  -16.2860 C   0  0  0  0  0  0  0  0  0  0  0  0
   -4.9810   -1.6990  -17.7860 C   0  0  0  0  0  0  0  0  0  0  0  0
   -6.1580   -3.4090  -15.5260 C   0  0  0  0  0  0  0  0  0  0  0  0
   -6.9010   -0.8610  -19.6760 C   0  0  0  0  0  0  0  0  0  0  0  0
   -4.6520   -0.9900  -18.9210 C   0  0  0  0  0  0  0  0  0  0  0  0
   -9.3820   -2.6890  -16.8980 O   0  0  0  0  0  0  0  0  0  0  0  0
   -3.2880   -0.8490  -18.9950 N   0  0  0  0  0  0  0  0  0  0  0  0
   -7.0500   -3.9470  -14.6020 N   0  0  0  0  0  0  0  0  0  0  0  0
   -3.3040   -2.3260  -15.7390 C   0  0  0  0  0  0  0  0  0  0  0  0
   -5.6140   -0.5810  -19.9090 C   0  0  0  0  0  0  0  0  0  0  0  0
   -6.4170   -1.9890  -17.5750 C   0  0  0  0  0  0  0  0  0  0  0  0
   -0.9720   -1.7690  -16.2620 C   0  0  0  0  0  0  0  0  0  0  0  0
   -6.9560   -2.6830  -16.4340 C   0  0  1  0  0  0  0  0  0  0  0  0
   -8.3880   -3.6870  -15.0700 N   0  0  0  0  0  0  0  0  0  0  0  0
   -7.3260   -1.5340  -18.5500 C   0  0  0  0  0  0  0  0  0  0  0  0
   -1.9870   -2.1680  -15.3640 C   0  0  0  0  0  0  0  0  0  0  0  0
  1 15  1  0
  2 12  1  0
  3  1  2  0
  3  2  1  0
  4 17  1  0
  5 14  1  0
  5  2  2  0
  6 11  1  0
  7 18  1  0
  8  5  1  0
  9  4  2  0
 10  8  2  0
 10  3  1  0
 12 19  2  0
 13  7  2  0
 13  8  1  0
 15 19  1  0
 16 14  1  6
 16  4  1  0
 16  6  1  0
 17 11  1  0
 18 14  2  0
M  END
$$$$

     RDKit          3D

 22 25  0  0  0  0  0  0  0  0999 V2000
   -2.3340   -0.9520  -19.7020 C   0  0  0  0  0  0  0  0  0  0  0  0
   -2.6920   -2.0030  -15.7410 O   0  0  0  0  0  0  0  0  0  0  0  0
   -3.6160   -1.3680  -19.1340 N   0  0  0  0  0  0  0  0  0  0  0  0
   -1.2520   -1.7980  -19.0050 C   0  0  0  0  0  0  0  0  0  0  0  0
    0.1360   -1.7550  -19.2600 C   0  0  0  0  0  0  0  0  0  0  0  0
   -2.5430   -1.6790  -16.9480 C   0  0  0  0  0  0  0  0  0  0  0  0
   -3.7380   -1.0320  -17.7260 C   0  0  2  0  0  0  0  0  0  0  0  0
   -9.6180   -3.1440  -16.8480 C   0  0  0  0  0  0  0  0  0  0  0  0
   -7.1860   -3.4370  -15.5890 C   0  0  0  0  0  0  0  0  0  0  0  0
  -10.9960   -2.8400  -17.4490 C   0  0  0  0  0  0  0  0  0  0  0  0
   -6.2770   -1.8260  -17.3470 C   0  0  0  0  0  0  0  0  0  0  0  0
   -9.5010   -4.0580  -15.8900 C   0  0  0  0  0  0  0  0  0  0  0  0
   -8.2780   -4.1880  -15.2430 C   0  0  0  0  0  0  0  0  0  0  0  0
   -0.2340   -2.2540  -16.9950 C   0  0  0  0  0  0  0  0  0  0  0  0
    0.8170   -1.9950  -17.9990 C   0  0  0  0  0  0  0  0  0  0  0  0
   -8.3300   -1.4440  -18.2170 N   0  0  0  0  0  0  0  0  0  0  0  0
   -6.9910   -1.1850  -18.3150 C   0  0  0  0  0  0  0  0  0  0  0  0
   -1.5080   -2.0550  -17.6560 N   0  0  0  0  0  0  0  0  0  0  0  0
   -5.0380   -1.7380  -17.1270 C   0  0  0  0  0  0  0  0  0  0  0  0
   -4.5000   -0.6530  -20.0420 C   0  0  0  0  0  0  0  0  0  0  0  0
   -8.5500   -2.4590  -17.2460 C   0  0  0  0  0  0  0  0  0  0  0  0
   -7.2460   -2.6050  -16.6370 C   0  0  0  0  0  0  0  0  0  0  0  0
  1  3  1  0
  1  4  1  0
  3  7  1  0
  4 18  1  0
  5  4  2  0
  5 15  1  0
  6  2  2  0
  7 19  1  1
  7  6  1  0
  8 12  1  0
  9 13  2  0
 10  8  1  0
 11 19  1  0
 11 22  2  0
 12 13  1  0
 15 14  2  0
 16 21  1  0
 17 16  2  0
 17 11  1  0
 18 14  1  0
 18  6  1  0
 20  3  1  0
 21  8  2  0
 21 22  1  0
 22  9  1  0
M  END
$$$$

     RDKit          3D

 22 26  0  0  0  0  0  0  0  0999 V2000
   -2.5260   -1.0520  -19.5760 C   0  0  0  0  0  0  0  0  0  0  0  0
   -2.3470   -2.3560  -15.6990 O   0  0  0  0  0  0  0  0  0  0  0  0
   -3.7460   -0.7130  -18.5810 C   0  0  2  0  0  0  0  0  0  0  0  0
   -1.6690   -1.7520  -19.1130 C   0  0  2  0  0  0  0  0  0  0  0  0
   -0.3560   -2.3420  -19.4720 C   0  0  0  0  0  0  0  0  0  0  0  0
   -2.6270   -2.1230  -16.8730 C   0  0  0  0  0  0  0  0  0  0  0  0
   -3.8320   -1.5280  -17.4410 C   0  0  1  0  0  0  0  0  0  0  0  0
   -9.6150   -3.0810  -17.2990 C   0  0  0  0  0  0  0  0  0  0  0  0
   -7.3600   -3.4320  -15.6740 C   0  0  0  0  0  0  0  0  0  0  0  0
  -10.7260   -2.9540  -18.1570 C   0  0  0  0  0  0  0  0  0  0  0  0
   -6.2280   -1.7290  -17.1500 C   0  0  0  0  0  0  0  0  0  0  0  0
   -9.6070   -4.0350  -16.2750 C   0  0  0  0  0  0  0  0  0  0  0  0
   -8.4460   -4.2120  -15.4200 C   0  0  0  0  0  0  0  0  0  0  0  0
   -0.2520   -2.3760  -17.8990 C   0  0  1  0  0  0  0  0  0  0  0  0
    0.4670   -1.2150  -17.2240 C   0  0  0  0  0  0  0  0  0  0  0  0
   -8.1460   -1.2410  -18.2290 N   0  0  0  0  0  0  0  0  0  0  0  0
   -6.8310   -0.9000  -18.1060 C   0  0  0  0  0  0  0  0  0  0  0  0
   -1.7100   -2.1830  -17.7150 N   0  0  0  0  0  0  0  0  0  0  0  0
   -4.9350   -1.6320  -16.7260 N   0  0  0  0  0  0  0  0  0  0  0  0
   -4.7750   -0.5600  -19.5040 F   0  0  0  0  0  0  0  0  0  0  0  0
   -8.4280   -2.3090  -17.4220 C   0  0  0  0  0  0  0  0  0  0  0  0
   -7.2820   -2.5360  -16.6430 C   0  0  0  0  0  0  0  0  0  0  0  0
  1  3  1  0
  3 20  1  6
  3  7  1  0
  4  1  1  6
  4 14  1  0
  4 18  1  0
  5  4  1  0
  5 14  1  0
  6  2  2  0
  7  6  1  0
  7 19  1  1
  8 12  1  0
  9 13  2  0
 10  8  1  0
 11 19  1  0
 11 22  2  0
 12 13  1  0
 14 18  1  0
 14 15  1  6
 16 17  2  0
 16 21  1  0
 17 11  1  0
 18  6  1  0
 21  8  2  0
 21 22  1  0
 22  9  1  0
M  END
$$$$

     RDKit          3D

 22 25  0  0  0  0  0  0  0  0999 V2000
   -2.5760   -1.0080  -19.8830 C   0  0  0  0  0  0  0  0  0  0  0  0
   -2.6670   -2.9220  -16.2980 O   0  0  0  0  0  0  0  0  0  0  0  0
   -3.7560   -1.0130  -19.0980 C   0  0  0  0  0  0  0  0  0  0  0  0
   -1.4600   -1.6340  -19.3980 C   0  0  0  0  0  0  0  0  0  0  0  0
   -0.1700   -1.6810  -20.1000 C   0  0  0  0  0  0  0  0  0  0  0  0
   -2.6580   -2.2870  -17.3210 C   0  0  0  0  0  0  0  0  0  0  0  0
   -3.8130   -1.5910  -17.8130 C   0  0  1  0  0  0  0  0  0  0  0  0
   -9.6670   -2.8090  -16.7850 C   0  0  0  0  0  0  0  0  0  0  0  0
   -7.1390   -3.3450  -15.6480 N   0  0  0  0  0  0  0  0  0  0  0  0
  -10.7820   -2.5770  -17.4010 N   0  0  0  0  0  0  0  0  0  0  0  0
   -6.3100   -1.6220  -17.3150 N   0  0  0  0  0  0  0  0  0  0  0  0
   -9.5580   -3.6830  -15.7580 N   0  0  0  0  0  0  0  0  0  0  0  0
   -8.3690   -3.8990  -15.3500 C   0  0  0  0  0  0  0  0  0  0  0  0
   -0.1810   -2.7580  -17.8980 C   0  0  0  0  0  0  0  0  0  0  0  0
    0.6310   -1.5410  -18.8990 C   0  0  0  0  0  0  0  0  0  0  0  0
   -8.2640   -1.2880  -18.3400 N   0  0  0  0  0  0  0  0  0  0  0  0
   -6.9300   -1.0520  -18.3120 C   0  0  0  0  0  0  0  0  0  0  0  0
   -1.5330   -2.2020  -18.1610 N   0  0  0  0  0  0  0  0  0  0  0  0
   -4.9950   -1.3750  -16.9140 C   0  0  0  0  0  0  0  0  0  0  0  0
   -4.8410   -0.5630  -19.7600 F   0  0  0  0  0  0  0  0  0  0  0  0
   -8.4710   -2.1480  -17.3700 C   0  0  0  0  0  0  0  0  0  0  0  0
   -7.2150   -2.3820  -16.7120 C   0  0  0  0  0  0  0  0  0  0  0  0
  1  4  1  0
  1  3  2  0
  3  7  1  0
  4  5  1  0
  4 18  1  0
  5 15  1  0
  6  2  2  0
  7  6  1  0
  7 19  1  1
  8 12  2  0
  9 13  2  0
 10  8  1  0
 11 19  1  0
 11 22  1  0
 12 13  1  0
 15 14  1  0
 16 17  2  0
 16 21  1  0
 17 11  1  0
 18 14  1  0
 18  6  1  0
 20  3  1  0
 21  8  1  0
 21 22  2  0
 22  9  1  0
M  END
$$$$

     RDKit          3D

 22 25  0  0  0  0  0  0  0  0999 V2000
   -2.2210   -1.0410  -19.7120 C   0  0  0  0  0  0  0  0  0  0  0  0
   -2.2230   -2.6740  -15.7310 C   0  0  0  0  0  0  0  0  0  0  0  0
   -3.4740   -0.8990  -18.8740 C   0  0  0  0  0  0  0  0  0  0  0  0
   -1.3290   -2.0840  -19.4180 C   0  0  1  0  0  0  0  0  0  0  0  0
    0.1290   -1.5860  -19.7260 C   0  0  0  0  0  0  0  0  0  0  0  0
   -2.2870   -2.0970  -17.0990 C   0  0  2  0  0  0  0  0  0  0  0  0
   -3.5010   -1.6220  -17.6100 C   0  0  1  0  0  0  0  0  0  0  0  0
   -9.3720   -3.0160  -17.0030 C   0  0  0  0  0  0  0  0  0  0  0  0
   -6.9510   -3.4470  -15.6320 C   0  0  0  0  0  0  0  0  0  0  0  0
  -10.4700   -2.8420  -17.6550 O   0  0  0  0  0  0  0  0  0  0  0  0
   -5.9870   -1.8380  -17.2360 C   0  0  0  0  0  0  0  0  0  0  0  0
   -9.2590   -3.8990  -16.0010 N   0  0  0  0  0  0  0  0  0  0  0  0
   -8.0950   -4.1160  -15.4080 C   0  0  0  0  0  0  0  0  0  0  0  0
    0.2000   -2.3940  -17.5370 C   0  0  0  0  0  0  0  0  0  0  0  0
    0.7840   -1.0820  -18.3270 C   0  0  0  0  0  0  0  0  0  0  0  0
   -8.0210   -1.4730  -18.3900 N   0  0  0  0  0  0  0  0  0  0  0  0
   -6.6480   -1.2250  -18.3230 C   0  0  0  0  0  0  0  0  0  0  0  0
   -1.2070   -2.2560  -17.8980 N   0  0  0  0  0  0  0  0  0  0  0  0
   -4.7160   -1.7070  -16.8690 C   0  0  0  0  0  0  0  0  0  0  0  0
   -4.3210   -0.1670  -19.3010 O   0  0  0  0  0  0  0  0  0  0  0  0
   -8.2140   -2.3440  -17.4100 C   0  0  0  0  0  0  0  0  0  0  0  0
   -7.0560   -2.5890  -16.6980 C   0  0  0  0  0  0  0  0  0  0  0  0
  4  1  1  1
  1  3  1  0
  3  7  1  0
  4  5  1  0
  4 18  1  0
  5 15  1  0
  6  2  1  6
  7  6  1  0
  7 19  1  1
  8 12  1  0
  9 13  1  0
 10  8  2  0
 11 19  1  0
 11 22  1  0
 12 13  2  0
 15 14  1  0
 16 17  1  0
 16 21  2  0
 17 11  2  0
 18 14  1  0
 18  6  1  0
 20  3  2  0
 21  8  1  0
 21 22  1  0
 22  9  2  0
M  END
$$$$

     RDKit          3D

 22 24  0  0  0  0  0  0  0  0999 V2000
   -2.6410   -0.9550  -19.7220 C   0  0  0  0  0  0  0  0  0  0  0  0
   -2.5170   -1.9770  -15.4190 C   0  0  0  0  0  0  0  0  0  0  0  0
   -3.8150   -0.9510  -18.9550 C   0  0  0  0  0  0  0  0  0  0  0  0
   -1.4540   -1.2770  -19.0860 C   0  0  0  0  0  0  0  0  0  0  0  0
   -0.4840   -2.1010  -19.9570 C   0  0  0  0  0  0  0  0  0  0  0  0
   -2.6030   -1.6520  -16.9080 C   0  0  0  0  0  0  0  0  0  0  0  0
   -3.8290   -1.2390  -17.5680 C   0  0  0  0  0  0  0  0  0  0  0  0
   -9.5770   -3.0240  -16.9390 C   0  0  0  0  0  0  0  0  0  0  0  0
   -7.0750   -3.6470  -15.7260 N   0  0  0  0  0  0  0  0  0  0  0  0
  -10.7180   -2.7630  -17.3730 O   0  0  0  0  0  0  0  0  0  0  0  0
   -6.2190   -1.8990  -17.1700 C   0  0  0  0  0  0  0  0  0  0  0  0
   -9.4070   -4.0440  -16.0210 N   0  0  0  0  0  0  0  0  0  0  0  0
   -8.2510   -4.2940  -15.4250 C   0  0  0  0  0  0  0  0  0  0  0  0
   -0.1950   -1.7280  -17.2090 O   0  0  0  0  0  0  0  0  0  0  0  0
    1.1580   -1.4550  -17.5300 C   0  0  0  0  0  0  0  0  0  0  0  0
   -8.2330   -1.3160  -18.1850 N   0  0  0  0  0  0  0  0  0  0  0  0
   -6.8720   -1.1110  -18.1070 N   0  0  0  0  0  0  0  0  0  0  0  0
   -1.4420   -1.6410  -17.7210 C   0  0  0  0  0  0  0  0  0  0  0  0
   -4.8370   -1.9920  -16.9580 C   0  0  0  0  0  0  0  0  0  0  0  0
   -5.1230   -0.4770  -19.9180 Cl  0  0  0  0  0  0  0  0  0  0  0  0
   -8.4160   -2.3220  -17.3140 C   0  0  0  0  0  0  0  0  0  0  0  0
   -7.2360   -2.6610  -16.6590 C   0  0  0  0  0  0  0  0  0  0  0  0
  1  4  2  0
  1  3  1  0
  3  7  2  0
  4 18  1  0
  5  4  1  0
  6  2  1  0
  7 19  1  0
  7  6  1  0
  8 12  1  0
  9 13  1  0
 10  8  2  0
 11 19  1  0
 11 22  1  0
 12 13  2  0
 15 14  1  0
 16 17  1  0
 16 21  2  0
 17 11  2  0
 18 14  1  0
 18  6  2  0
 20  3  1  0
 21  8  1  0
 21 22  1  0
 22  9  2  0
M  END
$$$$

     RDKit          3D

 22 25  0  0  0  0  0  0  0  0999 V2000
   -2.3780   -0.8130  -19.7300 C   0  0  0  0  0  0  0  0  0  0  0  0
   -2.6120   -2.3740  -15.8530 O   0  0  0  0  0  0  0  0  0  0  0  0
   -3.6480   -1.0060  -18.9980 C   0  0  2  0  0  0  0  0  0  0  0  0
   -1.3830   -1.8530  -19.1990 C   0  0  1  0  0  0  0  0  0  0  0  0
    0.1940   -2.0720  -19.5070 C   0  0  0  0  0  0  0  0  0  0  0  0
   -2.6390   -1.8810  -17.1180 C   0  0  0  0  0  0  0  0  0  0  0  0
   -3.7680   -1.3890  -17.6470 C   0  0  0  0  0  0  0  0  0  0  0  0
   -9.5670   -3.2400  -16.9160 C   0  0  0  0  0  0  0  0  0  0  0  0
   -7.1080   -3.4720  -15.4620 C   0  0  0  0  0  0  0  0  0  0  0  0
  -10.8220   -3.0700  -17.6310 C   0  0  0  0  0  0  0  0  0  0  0  0
   -6.2440   -1.8440  -17.1250 C   0  0  0  0  0  0  0  0  0  0  0  0
   -9.4640   -4.1650  -15.8680 C   0  0  0  0  0  0  0  0  0  0  0  0
   -8.2340   -4.2830  -15.1840 C   0  0  0  0  0  0  0  0  0  0  0  0
   -0.4740   -2.4920  -17.1240 C   0  0  0  0  0  0  0  0  0  0  0  0
    0.7360   -2.0040  -18.0150 C   0  0  0  0  0  0  0  0  0  0  0  0
   -8.2380   -1.7020  -18.3200 N   0  0  0  0  0  0  0  0  0  0  0  0
   -6.8640   -1.3640  -18.2760 C   0  0  0  0  0  0  0  0  0  0  0  0
   -1.4280   -1.6880  -17.7270 N   0  0  0  0  0  0  0  0  0  0  0  0
   -5.0360   -1.3120  -16.8230 N   0  0  0  0  0  0  0  0  0  0  0  0
   -4.7040   -0.8490  -19.8240 N   0  0  0  0  0  0  0  0  0  0  0  0
   -8.3670   -2.5310  -17.2870 C   0  0  0  0  0  0  0  0  0  0  0  0
   -7.2140   -2.6420  -16.5270 C   0  0  0  0  0  0  0  0  0  0  0  0
  1  3  1  0
  3 20  1  6
  3  7  1  0
  4  1  1  6
  4 18  1  0
  5  4  1  0
  5 15  1  0
  6  2  2  0
  7  6  1  0
  7 19  1  0
  8 12  1  0
  9 13  2  0
 10  8  1  0
 11 19  1  0
 11 22  2  0
 12 13  1  0
 15 14  1  0
 16 17  2  0
 16 21  1  0
 17 11  1  0
 18 14  1  0
 18  6  1  0
 21  8  2  0
 21 22  1  0
 22  9  1  0
M  END
$$$$

     RDKit          3D

 22 25  0  0  0  0  0  0  0  0999 V2000
   -2.6250   -1.1460  -19.5610 C   0  0  0  0  0  0  0  0  0  0  0  0
   -2.6040   -2.2750  -15.8240 C   0  0  0  0  0  0  0  0  0  0  0  0
   -3.8180   -1.2090  -18.9360 C   0  0  0  0  0  0  0  0  0  0  0  0
   -1.5360   -1.5180  -19.0750 C   0  0  1  0  0  0  0  0  0  0  0  0
   -0.2570   -0.9660  -19.3180 C   0  0  0  0  0  0  0  0  0  0  0  0
   -2.7390   -1.9360  -17.2520 C   0  0  0  0  0  0  0  0  0  0  0  0
   -4.0240   -1.8840  -17.7540 C   0  0  0  0  0  0  0  0  0  0  0  0
   -9.4510   -3.0050  -17.0350 C   0  0  0  0  0  0  0  0  0  0  0  0
   -6.9580   -3.5200  -15.6740 C   0  0  0  0  0  0  0  0  0  0  0  0
  -11.0600   -2.6250  -17.7870 Cl  0  0  0  0  0  0  0  0  0  0  0  0
   -6.2760   -1.8380  -17.4010 C   0  0  0  0  0  0  0  0  0  0  0  0
   -9.3520   -4.1200  -16.0000 C   0  0  0  0  0  0  0  0  0  0  0  0
   -8.0990   -4.2710  -15.2350 C   0  0  0  0  0  0  0  0  0  0  0  0
   -0.3570   -2.4100  -17.6730 C   0  0  0  0  0  0  0  0  0  0  0  0
    0.4350   -1.5170  -18.2130 C   0  0  0  0  0  0  0  0  0  0  0  0
   -8.1630   -1.3540  -18.1500 N   0  0  0  0  0  0  0  0  0  0  0  0
   -6.9010   -1.0560  -18.2490 C   0  0  0  0  0  0  0  0  0  0  0  0
   -1.6000   -1.9500  -17.9440 N   0  0  0  0  0  0  0  0  0  0  0  0
   -5.1140   -1.7510  -17.0220 O   0  0  0  0  0  0  0  0  0  0  0  0
   -4.7690   -0.6430  -19.6260 F   0  0  0  0  0  0  0  0  0  0  0  0
   -8.2780   -2.3170  -17.2890 C   0  0  0  0  0  0  0  0  0  0  0  0
   -7.1440   -2.6390  -16.7180 C   0  0  0  0  0  0  0  0  0  0  0  0
  1  3  2  0
  3  7  1  0
  4  1  1  0
  4 18  1  0
  4  5  1  1
  5 15  1  0
  6  2  1  0
  7  6  2  0
  7 19  1  0
  8 12  1  0
  9 13  2  0
 10  8  1  0
 11 19  1  0
 11 22  2  0
 12 13  1  0
 15 14  1  0
 16 21  1  0
 17 16  2  0
 17 11  1  0
 18 14  1  0
 18  6  1  0
 20  3  1  0
 21  8  2  0
 21 22  1  0
 22  9  1  0
M  END
$$$$

     RDKit          3D

 22 25  0  0  0  0  0  0  0  0999 V2000
   -2.4200   -1.1320  -19.6000 C   0  0  0  0  0  0  0  0  0  0  0  0
   -2.5240   -2.8730  -15.5960 Cl  0  0  0  0  0  0  0  0  0  0  0  0
   -3.6060   -1.1560  -18.8880 C   0  0  0  0  0  0  0  0  0  0  0  0
   -1.3310   -1.6240  -18.9090 C   0  0  0  0  0  0  0  0  0  0  0  0
    0.0280   -1.7460  -19.3870 C   0  0  0  0  0  0  0  0  0  0  0  0
   -2.5660   -2.1960  -16.9890 C   0  0  0  0  0  0  0  0  0  0  0  0
   -3.6720   -1.6570  -17.5490 C   0  0  0  0  0  0  0  0  0  0  0  0
   -9.4940   -3.0800  -16.7160 C   0  0  0  0  0  0  0  0  0  0  0  0
   -7.0750   -3.3990  -15.3560 C   0  0  0  0  0  0  0  0  0  0  0  0
  -10.7940   -2.7670  -17.3080 N   0  0  0  0  0  0  0  0  0  0  0  0
   -6.1580   -1.9020  -17.2440 C   0  0  0  0  0  0  0  0  0  0  0  0
   -9.3810   -3.9630  -15.6700 C   0  0  0  0  0  0  0  0  0  0  0  0
   -8.1750   -4.1870  -15.0430 C   0  0  0  0  0  0  0  0  0  0  0  0
   -0.2260   -2.8190  -17.4600 O   0  0  0  0  0  0  0  0  0  0  0  0
    0.7220   -1.9860  -18.0670 C   0  0  0  0  0  0  0  0  0  0  0  0
   -8.1670   -1.6480  -18.2310 N   0  0  0  0  0  0  0  0  0  0  0  0
   -6.8490   -1.2920  -18.2550 C   0  0  0  0  0  0  0  0  0  0  0  0
   -1.4470   -2.1100  -17.6370 C   0  0  0  0  0  0  0  0  0  0  0  0
   -4.8800   -1.5470  -16.8020 C   0  0  0  0  0  0  0  0  0  0  0  0
   -4.9440   -0.6380  -20.0250 Cl  0  0  0  0  0  0  0  0  0  0  0  0
   -8.3340   -2.4980  -17.1910 C   0  0  0  0  0  0  0  0  0  0  0  0
   -7.1290   -2.6100  -16.5350 C   0  0  0  0  0  0  0  0  0  0  0  0
  1  4  2  0
  1  3  1  0
  3  7  2  0
  4 18  1  0
  5  4  1  0
  5 15  1  0
  6  2  1  0
  7  6  1  0
  7 19  1  0
  8 12  1  0
  9 13  2  0
 10  8  1  0
 11 19  1  0
 11 22  2  0
 12 13  1  0
 15 14  1  0
 16 21  1  0
 17 16  2  0
 17 11  1  0
 18 14  1  0
 18  6  2  0
 20  3  1  0
 21  8  2  0
 21 22  1  0
 22  9  1  0
M  END
$$$$

     RDKit          3D

 22 25  0  0  0  0  0  0  0  0999 V2000
   -2.5160   -1.0390  -19.7500 C   0  0  0  0  0  0  0  0  0  0  0  0
   -2.5170   -1.9920  -15.7170 O   0  0  0  0  0  0  0  0  0  0  0  0
   -3.7340   -1.0700  -19.0600 C   0  0  0  0  0  0  0  0  0  0  0  0
   -1.4380   -1.8400  -19.1250 C   0  0  1  0  0  0  0  0  0  0  0  0
    0.0760   -2.0870  -19.5160 C   0  0  0  0  0  0  0  0  0  0  0  0
   -2.5700   -1.8120  -16.9480 C   0  0  0  0  0  0  0  0  0  0  0  0
   -3.8120   -1.4410  -17.6540 C   0  0  0  0  0  0  0  0  0  0  0  0
   -9.6950   -3.2060  -17.1660 C   0  0  0  0  0  0  0  0  0  0  0  0
   -7.3070   -3.6890  -15.7160 C   0  0  0  0  0  0  0  0  0  0  0  0
  -10.8400   -2.8370  -17.8340 F   0  0  0  0  0  0  0  0  0  0  0  0
   -6.3020   -1.9120  -17.3500 C   0  0  0  0  0  0  0  0  0  0  0  0
   -9.6470   -4.1670  -16.1380 C   0  0  0  0  0  0  0  0  0  0  0  0
   -8.4560   -4.4650  -15.4150 C   0  0  0  0  0  0  0  0  0  0  0  0
   -0.0530   -2.3440  -17.2080 C   0  0  0  0  0  0  0  0  0  0  0  0
    0.7320   -1.4390  -18.0400 C   0  0  0  0  0  0  0  0  0  0  0  0
   -8.2720   -1.6390  -18.3910 N   0  0  0  0  0  0  0  0  0  0  0  0
   -6.9290   -1.2480  -18.3970 C   0  0  0  0  0  0  0  0  0  0  0  0
   -1.4850   -1.9270  -17.6700 N   0  0  0  0  0  0  0  0  0  0  0  0
   -4.9950   -1.6050  -16.9080 C   0  0  0  0  0  0  0  0  0  0  0  0
   -4.7930   -0.6880  -19.8930 N   0  0  0  0  0  0  0  0  0  0  0  0
   -8.5080   -2.5420  -17.4900 C   0  0  0  0  0  0  0  0  0  0  0  0
   -7.2790   -2.7760  -16.7770 C   0  0  0  0  0  0  0  0  0  0  0  0
  1  3  1  0
  3  7  2  0
  4  1  1  1
  4 18  1  0
  5  4  1  0
  5 15  1  0
  6  2  2  0
  7  6  1  0
  7 19  1  0
  8 12  1  0
  9 13  2  0
 10  8  1  0
 11 19  1  0
 11 22  2  0
 12 13  1  0
 15 14  1  0
 16 21  1  0
 17 16  2  0
 17 11  1  0
 18 14  1  0
 18  6  1  0
 20  3  1  0
 21  8  2  0
 21 22  1  0
 22  9  1  0
M  END
$$$$

     RDKit          3D

 22 25  0  0  0  0  0  0  0  0999 V2000
   -2.5140   -1.0510  -19.6530 C   0  0  0  0  0  0  0  0  0  0  0  0
   -2.7680   -2.2800  -15.7150 O   0  0  0  0  0  0  0  0  0  0  0  0
   -3.6820   -0.6100  -18.6820 C   0  0  2  0  0  0  0  0  0  0  0  0
   -1.7320   -2.0090  -19.2750 C   0  0  1  0  0  0  0  0  0  0  0  0
   -0.3200   -2.4960  -19.1850 C   0  0  0  0  0  0  0  0  0  0  0  0
   -2.9190   -2.4730  -17.2040 C   0  0  1  0  0  0  0  0  0  0  0  0
   -3.7940   -1.2570  -17.4290 C   0  0  2  0  0  0  0  0  0  0  0  0
   -9.4270   -3.0590  -16.9970 C   0  0  0  0  0  0  0  0  0  0  0  0
   -7.0510   -3.4050  -15.6600 C   0  0  0  0  0  0  0  0  0  0  0  0
  -10.7990   -2.9890  -17.6940 C   0  0  0  0  0  0  0  0  0  0  0  0
   -6.2640   -1.7080  -17.2980 C   0  0  0  0  0  0  0  0  0  0  0  0
   -9.2520   -3.9030  -15.9570 C   0  0  0  0  0  0  0  0  0  0  0  0
   -8.0730   -4.2480  -15.3610 C   0  0  0  0  0  0  0  0  0  0  0  0
   -0.2030   -2.3400  -17.6000 C   0  0  1  0  0  0  0  0  0  0  0  0
    0.5210   -0.9970  -17.3390 C   0  0  0  0  0  0  0  0  0  0  0  0
   -8.2030   -1.5040  -18.3330 N   0  0  0  0  0  0  0  0  0  0  0  0
   -6.9490   -1.1850  -18.3420 C   0  0  0  0  0  0  0  0  0  0  0  0
   -1.6910   -1.9710  -17.7300 N   0  0  0  0  0  0  0  0  0  0  0  0
   -5.0230   -1.4190  -16.9280 N   0  0  0  0  0  0  0  0  0  0  0  0
   -4.7060   -0.8790  -19.6860 O   0  0  0  0  0  0  0  0  0  0  0  0
   -8.3320   -2.3540  -17.3680 C   0  0  0  0  0  0  0  0  0  0  0  0
   -7.1640   -2.5080  -16.6350 C   0  0  0  0  0  0  0  0  0  0  0  0
  1  3  1  0
  3 20  1  6
  3  7  1  0
  4  1  1  6
  4  5  1  0
  4 18  1  0
  5 14  1  0
  6  2  1  1
  7  6  1  0
  7 19  1  6
  8 12  1  0
  9 13  2  0
 10  8  1  0
 11 19  1  0
 11 22  2  0
 12 13  1  0
 14 15  1  6
 16 21  1  0
 17 16  2  0
 17 11  1  0
 18 14  1  0
 18  6  1  0
 21  8  2  0
 21 22  1  0
 22  9  1  0
M  END
$$$$

     RDKit          3D

 22 25  0  0  0  0  0  0  0  0999 V2000
   -2.6480   -1.0030  -19.7610 C   0  0  0  0  0  0  0  0  0  0  0  0
   -2.5340   -1.8630  -15.8900 O   0  0  0  0  0  0  0  0  0  0  0  0
   -3.9610   -1.2630  -19.1040 C   0  0  0  0  0  0  0  0  0  0  0  0
   -1.5540   -1.2450  -19.0970 C   0  0  0  0  0  0  0  0  0  0  0  0
   -0.1480   -1.2590  -19.6710 C   0  0  0  0  0  0  0  0  0  0  0  0
   -2.6560   -1.5890  -17.1360 C   0  0  0  0  0  0  0  0  0  0  0  0
   -3.8730   -1.4530  -17.7650 C   0  0  0  0  0  0  0  0  0  0  0  0
   -9.4780   -3.0050  -17.0700 C   0  0  0  0  0  0  0  0  0  0  0  0
   -7.1800   -3.5200  -15.4960 C   0  0  0  0  0  0  0  0  0  0  0  0
  -11.0310   -2.6380  -17.8960 Cl  0  0  0  0  0  0  0  0  0  0  0  0
   -6.0910   -1.8030  -17.2580 C   0  0  0  0  0  0  0  0  0  0  0  0
   -9.4550   -3.9430  -16.1190 C   0  0  0  0  0  0  0  0  0  0  0  0
   -8.3300   -4.1540  -15.3060 C   0  0  0  0  0  0  0  0  0  0  0  0
   -0.2870   -2.3030  -17.6670 C   0  0  0  0  0  0  0  0  0  0  0  0
    0.7410   -1.3310  -18.4300 C   0  0  0  0  0  0  0  0  0  0  0  0
   -8.0400   -1.4440  -18.2040 N   0  0  0  0  0  0  0  0  0  0  0  0
   -6.6170   -1.1870  -18.3400 C   0  0  0  0  0  0  0  0  0  0  0  0
   -1.5270   -1.5140  -17.9220 N   0  0  0  0  0  0  0  0  0  0  0  0
   -4.9760   -1.8070  -16.9190 N   0  0  0  0  0  0  0  0  0  0  0  0
   -4.8300   -0.5250  -19.7330 N   0  0  0  0  0  0  0  0  0  0  0  0
   -8.3030   -2.3210  -17.2960 C   0  0  0  0  0  0  0  0  0  0  0  0
   -7.1530   -2.5860  -16.6460 C   0  0  0  0  0  0  0  0  0  0  0  0
  1  3  1  0
  1  4  2  0
  3  7  1  0
  4 18  1  0
  5  4  1  0
  5 15  1  0
  6  2  2  0
  7  6  1  0
  7 19  2  3
  8 12  1  0
  9 13  2  0
 10  8  1  0
 11 19  1  0
 11 22  2  0
 12 13  1  0
 15 14  1  0
 16 21  1  0
 17 16  2  0
 17 11  1  0
 18 14  1  0
 18  6  1  0
 20  3  2  0
 21  8  2  0
 21 22  1  0
 22  9  1  0
M  END
$$$$

     RDKit          3D

 22 25  0  0  0  0  0  0  0  0999 V2000
   -2.2490   -1.0070  -19.7740 C   0  0  0  0  0  0  0  0  0  0  0  0
   -2.3260   -2.7950  -16.0940 O   0  0  0  0  0  0  0  0  0  0  0  0
   -3.4830   -0.9490  -18.9580 C   0  0  0  0  0  0  0  0  0  0  0  0
   -1.3050   -2.1340  -19.4130 C   0  0  1  0  0  0  0  0  0  0  0  0
    0.1560   -1.6890  -19.7800 C   0  0  0  0  0  0  0  0  0  0  0  0
   -2.4140   -2.3640  -17.2280 C   0  0  0  0  0  0  0  0  0  0  0  0
   -3.6170   -1.5950  -17.7090 C   0  0  0  0  0  0  0  0  0  0  0  0
   -9.3960   -3.0540  -17.0970 C   0  0  0  0  0  0  0  0  0  0  0  0
   -6.9250   -3.4430  -15.7720 C   0  0  0  0  0  0  0  0  0  0  0  0
  -10.5790   -3.0730  -17.8400 O   0  0  0  0  0  0  0  0  0  0  0  0
   -6.1310   -1.6850  -17.4470 C   0  0  0  0  0  0  0  0  0  0  0  0
   -9.3150   -3.9350  -16.0130 C   0  0  0  0  0  0  0  0  0  0  0  0
   -8.0210   -4.1440  -15.3760 C   0  0  0  0  0  0  0  0  0  0  0  0
    0.1090   -2.4500  -17.4740 C   0  0  0  0  0  0  0  0  0  0  0  0
    0.8210   -1.4840  -18.4120 C   0  0  0  0  0  0  0  0  0  0  0  0
   -8.1170   -1.5040  -18.5260 N   0  0  0  0  0  0  0  0  0  0  0  0
   -6.7990   -1.1200  -18.5020 C   0  0  0  0  0  0  0  0  0  0  0  0
   -1.3300   -2.3470  -17.9430 N   0  0  0  0  0  0  0  0  0  0  0  0
   -4.7640   -1.5300  -16.9490 C   0  0  0  0  0  0  0  0  0  0  0  0
   -4.5510   -0.2870  -19.4670 O   0  0  0  0  0  0  0  0  0  0  0  0
   -8.2580   -2.4080  -17.4970 C   0  0  0  0  0  0  0  0  0  0  0  0
   -6.9880   -2.5950  -16.8680 C   0  0  0  0  0  0  0  0  0  0  0  0
  4  1  1  1
  1  3  1  0
  3  7  2  0
  4  5  1  0
  4 18  1  0
  5 15  1  0
  6  2  2  0
  7  6  1  0
  7 19  1  0
  8 12  1  0
  9 13  2  0
 10  8  1  0
 11 19  1  0
 11 22  2  0
 12 13  1  0
 15 14  1  0
 16 17  2  0
 16 21  1  0
 17 11  1  0
 18 14  1  0
 18  6  1  0
 20  3  1  0
 21  8  2  0
 21 22  1  0
 22  9  1  0
M  END
$$$$

     RDKit          3D

 22 25  0  0  0  0  0  0  0  0999 V2000
   -2.6710   -1.0120  -19.6780 C   0  0  0  0  0  0  0  0  0  0  0  0
   -2.2820   -2.2630  -15.4530 C   0  0  0  0  0  0  0  0  0  0  0  0
   -3.8360   -1.1680  -18.7670 C   0  0  0  0  0  0  0  0  0  0  0  0
   -1.3930   -1.3210  -19.1520 C   0  0  0  0  0  0  0  0  0  0  0  0
   -0.2700   -1.5260  -20.0580 C   0  0  0  0  0  0  0  0  0  0  0  0
   -2.3570   -1.7960  -16.8980 C   0  0  0  0  0  0  0  0  0  0  0  0
   -3.6760   -1.6100  -17.4320 C   0  0  0  0  0  0  0  0  0  0  0  0
   -9.4330   -2.9900  -16.9530 C   0  0  0  0  0  0  0  0  0  0  0  0
   -7.0790   -3.5890  -15.5710 C   0  0  0  0  0  0  0  0  0  0  0  0
  -10.5800   -2.7220  -17.5830 O   0  0  0  0  0  0  0  0  0  0  0  0
   -6.0180   -1.9820  -17.2270 C   0  0  0  0  0  0  0  0  0  0  0  0
   -9.4020   -3.9560  -15.9040 C   0  0  0  0  0  0  0  0  0  0  0  0
   -8.2790   -4.2460  -15.2450 C   0  0  0  0  0  0  0  0  0  0  0  0
   -0.0380   -2.0790  -17.2090 O   0  0  0  0  0  0  0  0  0  0  0  0
    0.9960   -1.1290  -17.1430 C   0  0  0  0  0  0  0  0  0  0  0  0
   -7.9270   -1.5430  -18.4160 C   0  0  0  0  0  0  0  0  0  0  0  0
   -6.4750   -1.4390  -18.4180 C   0  0  0  0  0  0  0  0  0  0  0  0
   -1.3120   -1.6620  -17.6820 C   0  0  0  0  0  0  0  0  0  0  0  0
   -4.8000   -1.9280  -16.7080 N   0  0  0  0  0  0  0  0  0  0  0  0
   -5.3520   -0.8130  -19.5050 S   0  0  0  0  0  0  0  0  0  0  0  0
   -8.2420   -2.4160  -17.3470 C   0  0  0  0  0  0  0  0  0  0  0  0
   -7.0610   -2.6680  -16.6620 C   0  0  0  0  0  0  0  0  0  0  0  0
  1  4  2  0
  3  1  1  0
  3  7  1  0
  4 18  1  0
  5  4  1  0
  6  2  1  0
  7  6  1  0
  7 19  2  0
  8 12  1  0
  9 13  1  0
 10  8  1  0
 11 19  1  0
 11 22  1  0
 12 13  2  0
 14 15  1  0
 16 21  1  0
 17 16  1  0
 17 11  2  0
 18 14  1  0
 18  6  2  0
 20  3  1  0
 20 17  1  0
 21  8  2  0
 21 22  1  0
 22  9  2  0
M  END
$$$$

     RDKit          3D

 22 25  0  0  0  0  0  0  0  0999 V2000
   -2.0430   -0.4590  -19.5180 S   0  0  0  0  0  0  0  0  0  0  0  0
   -2.6850   -1.8820  -15.7010 O   0  0  0  0  0  0  0  0  0  0  0  0
   -3.6330   -1.0440  -19.0330 C   0  0  1  0  0  0  0  0  0  0  0  0
   -1.3640   -2.0480  -19.0330 C   0  0  1  0  0  0  0  0  0  0  0  0
    0.1460   -2.1420  -19.3380 C   0  0  0  0  0  0  0  0  0  0  0  0
   -2.6160   -1.7530  -16.9040 C   0  0  0  0  0  0  0  0  0  0  0  0
   -3.8090   -1.3850  -17.7520 C   0  0  0  0  0  0  0  0  0  0  0  0
   -9.4780   -3.1100  -16.9070 C   0  0  0  0  0  0  0  0  0  0  0  0
   -6.9210   -3.3270  -15.5270 C   0  0  0  0  0  0  0  0  0  0  0  0
  -10.6330   -3.0760  -17.5530 F   0  0  0  0  0  0  0  0  0  0  0  0
   -6.2720   -1.8340  -17.3560 C   0  0  0  0  0  0  0  0  0  0  0  0
   -9.2890   -3.9360  -15.8080 C   0  0  0  0  0  0  0  0  0  0  0  0
   -8.0430   -4.0450  -15.1050 C   0  0  0  0  0  0  0  0  0  0  0  0
   -0.1740   -2.2120  -16.9390 C   0  0  0  0  0  0  0  0  0  0  0  0
    0.8480   -1.9740  -18.0070 C   0  0  0  0  0  0  0  0  0  0  0  0
   -8.1780   -1.5550  -18.3590 N   0  0  0  0  0  0  0  0  0  0  0  0
   -6.8060   -1.2490  -18.3400 N   0  0  0  0  0  0  0  0  0  0  0  0
   -1.5540   -2.1620  -17.6020 N   0  0  0  0  0  0  0  0  0  0  0  0
   -4.9880   -1.7100  -16.9140 N   0  0  0  0  0  0  0  0  0  0  0  0
   -4.7440   -1.0410  -20.0670 C   0  0  0  0  0  0  0  0  0  0  0  0
   -8.3700   -2.3730  -17.3240 C   0  0  0  0  0  0  0  0  0  0  0  0
   -7.1180   -2.5380  -16.6360 N   0  0  0  0  0  0  0  0  0  0  0  0
  1  3  1  0
  1  4  1  0
  3 20  1  1
  3  7  1  0
  4  5  1  1
  4 18  1  0
  5 15  1  0
  6  2  2  0
  7 19  2  3
  7  6  1  0
  8 12  1  0
  9 13  1  0
 10  8  1  0
 11 19  1  0
 11 22  1  0
 12 13  2  0
 15 14  1  0
 16 17  1  0
 16 21  1  0
 17 11  2  0
 18 14  1  0
 18  6  1  0
 21  8  2  0
 21 22  1  0
 22  9  1  0
M  END
$$$$

     RDKit          3D

 22 24  0  0  0  0  0  0  0  0999 V2000
   -2.5870   -1.1730  -19.5890 C   0  0  0  0  0  0  0  0  0  0  0  0
   -2.3170   -2.4040  -15.7140 O   0  0  0  0  0  0  0  0  0  0  0  0
   -3.7320   -1.0460  -18.7880 C   0  0  0  0  0  0  0  0  0  0  0  0
   -1.5000   -1.6850  -19.1290 C   0  0  0  0  0  0  0  0  0  0  0  0
   -0.4770   -2.3010  -19.7790 O   0  0  0  0  0  0  0  0  0  0  0  0
   -2.4800   -1.9320  -16.9650 C   0  0  0  0  0  0  0  0  0  0  0  0
   -3.6840   -1.6020  -17.5100 C   0  0  1  0  0  0  0  0  0  0  0  0
   -9.5100   -3.2000  -17.0590 C   0  0  0  0  0  0  0  0  0  0  0  0
   -7.1700   -3.4850  -15.5570 C   0  0  0  0  0  0  0  0  0  0  0  0
  -10.8900   -3.1040  -17.9700 Cl  0  0  0  0  0  0  0  0  0  0  0  0
   -6.2720   -1.7600  -17.2120 C   0  0  0  0  0  0  0  0  0  0  0  0
   -9.4770   -4.1130  -16.0470 C   0  0  0  0  0  0  0  0  0  0  0  0
   -8.3150   -4.2920  -15.3490 C   0  0  0  0  0  0  0  0  0  0  0  0
   -0.1170   -2.7370  -17.4140 C   0  0  0  0  0  0  0  0  0  0  0  0
    0.9450   -1.4920  -17.4870 C   0  0  0  0  0  0  0  0  0  0  0  0
   -8.1740   -1.4300  -18.2350 N   0  0  0  0  0  0  0  0  0  0  0  0
   -6.8550   -1.0650  -18.1420 N   0  0  0  0  0  0  0  0  0  0  0  0
   -1.4280   -2.1520  -17.7630 N   0  0  0  0  0  0  0  0  0  0  0  0
   -4.8920   -1.7250  -16.6620 C   0  0  0  0  0  0  0  0  0  0  0  0
   -4.8190   -0.5340  -19.4500 F   0  0  0  0  0  0  0  0  0  0  0  0
   -8.4000   -2.4070  -17.3740 C   0  0  0  0  0  0  0  0  0  0  0  0
   -7.2390   -2.5950  -16.6210 C   0  0  0  0  0  0  0  0  0  0  0  0
  1  4  1  0
  1  3  2  0
  3  7  1  0
  4 18  1  0
  5  4  2  0
  6  2  2  0
  7  6  1  0
  7 19  1  1
  8 12  1  0
  9 13  2  0
 10  8  1  0
 11 19  1  0
 11 22  2  0
 12 13  1  0
 15 14  1  0
 16 17  2  0
 16 21  1  0
 17 11  1  0
 18 14  1  0
 18  6  1  0
 20  3  1  0
 21  8  2  0
 21 22  1  0
 22  9  1  0
M  END
$$$$

     RDKit          3D

 22 25  0  0  0  0  0  0  0  0999 V2000
   -2.6200   -0.9120  -19.6170 C   0  0  0  0  0  0  0  0  0  0  0  0
   -2.4330   -2.3380  -15.8270 O   0  0  0  0  0  0  0  0  0  0  0  0
   -3.8350   -1.2120  -18.9750 C   0  0  0  0  0  0  0  0  0  0  0  0
   -1.4800   -1.1930  -18.9720 C   0  0  0  0  0  0  0  0  0  0  0  0
   -0.0550   -0.8980  -19.3790 C   0  0  0  0  0  0  0  0  0  0  0  0
   -2.5610   -2.0800  -17.0420 C   0  0  0  0  0  0  0  0  0  0  0  0
   -3.8770   -1.6980  -17.6510 C   0  0  0  0  0  0  0  0  0  0  0  0
   -9.5880   -2.9610  -17.0090 C   0  0  0  0  0  0  0  0  0  0  0  0
   -7.2500   -3.5040  -15.6450 C   0  0  0  0  0  0  0  0  0  0  0  0
  -11.0170   -2.7430  -17.9010 Cl  0  0  0  0  0  0  0  0  0  0  0  0
   -6.2510   -1.7890  -17.2580 N   0  0  0  0  0  0  0  0  0  0  0  0
   -9.6280   -3.8720  -16.0270 C   0  0  0  0  0  0  0  0  0  0  0  0
   -8.4140   -4.0970  -15.3570 C   0  0  0  0  0  0  0  0  0  0  0  0
   -0.1960   -2.6150  -17.6150 C   0  0  0  0  0  0  0  0  0  0  0  0
    0.7700   -1.7280  -18.4410 C   0  0  0  0  0  0  0  0  0  0  0  0
   -8.0850   -1.3100  -18.2180 N   0  0  0  0  0  0  0  0  0  0  0  0
   -6.8630   -1.0190  -18.1200 C   0  0  0  0  0  0  0  0  0  0  0  0
   -1.4890   -2.0130  -17.8450 N   0  0  0  0  0  0  0  0  0  0  0  0
   -4.9390   -1.9160  -16.7770 N   0  0  0  0  0  0  0  0  0  0  0  0
   -4.9420   -0.8510  -19.6440 F   0  0  0  0  0  0  0  0  0  0  0  0
   -8.4140   -2.3120  -17.3540 C   0  0  0  0  0  0  0  0  0  0  0  0
   -7.1430   -2.5430  -16.6400 C   0  0  0  0  0  0  0  0  0  0  0  0
  1  3  1  0
  1  4  2  0
  3  7  2  0
  4 18  1  0
  5  4  1  0
  5 15  1  0
  6  2  2  0
  7  6  1  0
  7 19  1  0
  8 12  2  0
  9 13  2  0
 10  8  1  0
 11 19  1  0
 11 22  1  0
 12 13  1  0
 15 14  1  0
 16 17  2  0
 16 21  1  0
 17 11  1  0
 18 14  1  0
 18  6  1  0
 20  3  1  0
 21  8  1  0
 21 22  2  0
 22  9  1  0
M  END
$$$$

     RDKit          3D

 22 25  0  0  0  0  0  0  0  0999 V2000
   -2.3110   -0.9310  -19.6990 C   0  0  0  0  0  0  0  0  0  0  0  0
   -2.3720   -2.3400  -15.8720 O   0  0  0  0  0  0  0  0  0  0  0  0
   -3.5890   -0.9930  -18.9580 C   0  0  0  0  0  0  0  0  0  0  0  0
   -1.3410   -1.9970  -19.3060 C   0  0  1  0  0  0  0  0  0  0  0  0
    0.0610   -1.6400  -19.6030 C   0  0  0  0  0  0  0  0  0  0  0  0
   -2.4430   -2.1530  -17.0720 C   0  0  0  0  0  0  0  0  0  0  0  0
   -3.6150   -1.6550  -17.6110 C   0  0  0  0  0  0  0  0  0  0  0  0
   -9.4240   -2.7950  -17.1870 C   0  0  0  0  0  0  0  0  0  0  0  0
   -7.0250   -3.3150  -15.7750 C   0  0  0  0  0  0  0  0  0  0  0  0
  -10.5300   -2.6850  -17.8120 O   0  0  0  0  0  0  0  0  0  0  0  0
   -6.0690   -1.7360  -17.3550 C   0  0  0  0  0  0  0  0  0  0  0  0
   -9.3670   -3.6540  -16.0950 N   0  0  0  0  0  0  0  0  0  0  0  0
   -8.2380   -3.9130  -15.4060 C   0  0  0  0  0  0  0  0  0  0  0  0
   -0.0170   -2.2960  -17.2410 C   0  0  0  0  0  0  0  0  0  0  0  0
    0.8660   -1.6630  -18.2580 C   0  0  0  0  0  0  0  0  0  0  0  0
   -7.9710   -1.3260  -18.4240 N   0  0  0  0  0  0  0  0  0  0  0  0
   -6.6230   -1.0290  -18.4000 C   0  0  0  0  0  0  0  0  0  0  0  0
   -1.3580   -2.3620  -17.8510 N   0  0  0  0  0  0  0  0  0  0  0  0
   -4.8610   -1.7260  -16.9260 C   0  0  0  0  0  0  0  0  0  0  0  0
   -4.4190   -0.4490  -19.4650 O   0  0  0  0  0  0  0  0  0  0  0  0
   -8.2740   -2.2180  -17.5080 C   0  0  0  0  0  0  0  0  0  0  0  0
   -7.0780   -2.4390  -16.8560 C   0  0  0  0  0  0  0  0  0  0  0  0
  1  3  1  0
  3  7  1  0
  4  1  1  1
  4 18  1  0
  5  4  1  0
  5 15  1  0
  6  2  2  0
  7  6  1  0
  7 19  1  0
  8 12  1  0
  9 13  1  0
 10  8  2  0
 11 19  1  0
 11 22  1  0
 12 13  2  0
 15 14  1  0
 16 17  1  0
 16 21  2  0
 17 11  2  0
 18 14  1  0
 18  6  1  0
 20  3  2  0
 21  8  1  0
 21 22  1  0
 22  9  2  0
M  END
$$$$

     RDKit          3D

 22 24  0  0  0  0  0  0  0  0999 V2000
   -2.5450   -0.9340  -19.6720 C   0  0  0  0  0  0  0  0  0  0  0  0
   -2.5150   -2.3160  -15.8210 C   0  0  0  0  0  0  0  0  0  0  0  0
   -3.8220   -1.0860  -19.0810 C   0  0  0  0  0  0  0  0  0  0  0  0
   -1.5170   -1.3420  -19.1260 C   0  0  0  0  0  0  0  0  0  0  0  0
   -0.1530   -1.6670  -19.8100 C   0  0  0  0  0  0  0  0  0  0  0  0
   -2.7270   -1.5440  -17.1560 C   0  0  0  0  0  0  0  0  0  0  0  0
   -3.8930   -1.5200  -17.7580 C   0  0  0  0  0  0  0  0  0  0  0  0
   -9.4660   -2.8760  -16.9980 C   0  0  0  0  0  0  0  0  0  0  0  0
   -7.1670   -3.5080  -15.5940 C   0  0  0  0  0  0  0  0  0  0  0  0
  -10.6580   -2.5550  -17.6260 O   0  0  0  0  0  0  0  0  0  0  0  0
   -6.1620   -1.8520  -17.2180 C   0  0  0  0  0  0  0  0  0  0  0  0
   -9.4700   -3.7910  -16.0380 C   0  0  0  0  0  0  0  0  0  0  0  0
   -8.2870   -4.1380  -15.2940 C   0  0  0  0  0  0  0  0  0  0  0  0
   -0.3310   -2.0840  -17.4570 O   0  0  0  0  0  0  0  0  0  0  0  0
    1.0730   -1.4270  -17.4610 C   0  0  0  0  0  0  0  0  0  0  0  0
   -8.1180   -1.3820  -18.2110 N   0  0  0  0  0  0  0  0  0  0  0  0
   -6.8140   -1.2260  -18.1830 C   0  0  0  0  0  0  0  0  0  0  0  0
   -1.5540   -1.7440  -17.9460 C   0  0  0  0  0  0  0  0  0  0  0  0
   -4.9250   -1.9750  -16.8840 C   0  0  0  0  0  0  0  0  0  0  0  0
   -5.0260   -0.6530  -20.2170 Cl  0  0  0  0  0  0  0  0  0  0  0  0
   -8.3070   -2.2690  -17.2890 C   0  0  0  0  0  0  0  0  0  0  0  0
   -7.2330   -2.5900  -16.6400 C   0  0  0  0  0  0  0  0  0  0  0  0
  1  4  2  0
  1  3  1  0
  3  7  2  0
  4 18  1  0
  5  4  1  0
  6  2  1  0
  7  6  1  0
  7 19  1  0
  8 12  1  0
  9 13  2  0
 10  8  1  0
 11 19  1  0
 11 22  2  0
 12 13  1  0
 15 14  1  0
 16 17  2  0
 16 21  1  0
 17 11  1  0
 18 14  1  0
 18  6  2  0
 20  3  1  0
 21  8  2  0
 21 22  1  0
 22  9  1  0
M  END
$$$$

     RDKit          3D

 19 21  0  0  0  0  0  0  0  0999 V2000
   -4.3410   -2.3410  -16.1890 C   0  0  0  0  0  0  0  0  0  0  0  0
   -5.5630   -1.5560  -18.1850 C   0  0  0  0  0  0  0  0  0  0  0  0
   -0.5590    0.6500  -19.8890 C   0  0  0  0  0  0  0  0  0  0  0  0
   -9.1800   -2.8500  -16.5980 F   0  0  0  0  0  0  0  0  0  0  0  0
   -3.0840   -1.4830  -18.0770 C   0  0  2  0  0  0  0  0  0  0  0  0
   -4.3450   -1.1200  -18.7120 C   0  0  0  0  0  0  0  0  0  0  0  0
   -0.0270    0.4040  -18.5780 C   0  0  0  0  0  0  0  0  0  0  0  0
   -8.0020   -2.4240  -17.0770 C   0  0  0  0  0  0  0  0  0  0  0  0
   -0.5010   -1.0230  -18.1390 C   0  0  0  0  0  0  0  0  0  0  0  0
   -6.7250   -1.2490  -18.8010 C   0  0  0  0  0  0  0  0  0  0  0  0
   -1.8370   -1.4110  -20.1650 C   0  0  0  0  0  0  0  0  0  0  0  0
   -3.0630   -1.9210  -16.8370 C   0  0  0  0  0  0  0  0  0  0  0  0
   -7.9260   -1.6650  -18.2890 C   0  0  0  0  0  0  0  0  0  0  0  0
   -2.0060   -2.0750  -16.1620 O   0  0  0  0  0  0  0  0  0  0  0  0
   -6.8110   -2.6920  -16.4060 C   0  0  0  0  0  0  0  0  0  0  0  0
   -5.5440   -2.2090  -16.9250 C   0  0  0  0  0  0  0  0  0  0  0  0
   -0.5890   -0.6170  -20.6670 C   0  0  0  0  0  0  0  0  0  0  0  0
   -1.8550   -1.2280  -18.7540 N   0  0  0  0  0  0  0  0  0  0  0  0
   -6.9170   -3.5790  -15.0050 Cl  0  0  0  0  0  0  0  0  0  0  0  0
  2 16  2  0
  3  7  1  0
  5 18  1  1
  5 12  1  0
  6  2  1  0
  6  5  1  0
  7  9  1  0
  8  4  1  0
  8 15  2  0
 10 13  2  0
 10  2  1  0
 11 18  1  0
 12  1  1  0
 12 14  2  0
 13  8  1  0
 15 19  1  0
 16 15  1  0
 16  1  1  0
 17 11  1  0
 17  3  1  0
 18  9  1  0
M  END
$$$$

     RDKit          3D

 19 21  0  0  0  0  0  0  0  0999 V2000
   -4.2670   -2.7220  -16.5000 C   0  0  0  0  0  0  0  0  0  0  0  0
   -5.5770   -1.6240  -18.3250 C   0  0  0  0  0  0  0  0  0  0  0  0
   -0.5160    0.4100  -20.0310 O   0  0  0  0  0  0  0  0  0  0  0  0
   -9.1650   -2.4590  -16.3860 O   0  0  0  0  0  0  0  0  0  0  0  0
   -3.0910   -1.5550  -18.2590 C   0  0  0  0  0  0  0  0  0  0  0  0
   -4.2690   -1.2280  -18.8590 C   0  0  0  0  0  0  0  0  0  0  0  0
    0.0570    0.2590  -18.7140 C   0  0  0  0  0  0  0  0  0  0  0  0
   -7.9850   -2.2060  -17.0100 C   0  0  0  0  0  0  0  0  0  0  0  0
   -1.0100   -0.4090  -17.9220 C   0  0  0  0  0  0  0  0  0  0  0  0
   -6.7560   -1.3530  -18.9170 C   0  0  0  0  0  0  0  0  0  0  0  0
   -1.2540   -1.9190  -19.8010 C   0  0  0  0  0  0  0  0  0  0  0  0
   -3.0320   -2.3420  -17.0420 C   0  0  0  0  0  0  0  0  0  0  0  0
   -7.9570   -1.6010  -18.2820 C   0  0  0  0  0  0  0  0  0  0  0  0
   -1.9040   -2.5700  -16.4760 O   0  0  0  0  0  0  0  0  0  0  0  0
   -6.7920   -2.5890  -16.4430 C   0  0  0  0  0  0  0  0  0  0  0  0
   -5.5520   -2.3420  -17.0550 C   0  0  0  0  0  0  0  0  0  0  0  0
   -0.4130   -0.9280  -20.5810 C   0  0  0  0  0  0  0  0  0  0  0  0
   -1.8250   -1.2150  -18.5740 N   0  0  0  0  0  0  0  0  0  0  0  0
   -6.9870   -3.1840  -15.0010 Cl  0  0  0  0  0  0  0  0  0  0  0  0
  2 16  2  0
  3  7  1  0
  5 12  1  0
  6  2  1  0
  6  5  2  0
  7  9  1  0
  8 15  2  0
  8  4  1  0
 10  2  1  0
 10 13  2  0
 11 18  1  0
 12  1  2  0
 12 14  1  0
 13  8  1  0
 15 19  1  0
 16  1  1  0
 16 15  1  0
 17  3  1  0
 17 11  1  0
 18  5  1  0
 18  9  1  0
M  END
$$$$

     RDKit          3D

 19 21  0  0  0  0  0  0  0  0999 V2000
   -4.3250   -2.4650  -16.2120 C   0  0  0  0  0  0  0  0  0  0  0  0
   -5.5150   -1.4340  -18.0310 C   0  0  0  0  0  0  0  0  0  0  0  0
    0.3480   -0.0890  -20.3100 C   0  0  0  0  0  0  0  0  0  0  0  0
   -9.2540   -2.8680  -16.6440 C   0  0  0  0  0  0  0  0  0  0  0  0
   -3.1170   -0.9170  -17.8710 C   0  0  1  0  0  0  0  0  0  0  0  0
   -4.4350   -1.0110  -18.5110 C   0  0  0  0  0  0  0  0  0  0  0  0
    0.3030    0.3510  -18.7140 C   0  0  0  0  0  0  0  0  0  0  0  0
   -7.9160   -2.3280  -17.0590 C   0  0  0  0  0  0  0  0  0  0  0  0
   -1.1010    0.3620  -18.1780 C   0  0  0  0  0  0  0  0  0  0  0  0
   -6.6710   -1.1000  -18.5910 N   0  0  0  0  0  0  0  0  0  0  0  0
   -1.6960   -1.4610  -19.8730 C   0  0  0  0  0  0  0  0  0  0  0  0
   -3.0920   -2.0030  -16.7030 C   0  0  0  0  0  0  0  0  0  0  0  0
   -7.8630   -1.4260  -18.1490 C   0  0  0  0  0  0  0  0  0  0  0  0
   -1.9300   -2.3410  -16.1320 F   0  0  0  0  0  0  0  0  0  0  0  0
   -6.7470   -2.6450  -16.4440 C   0  0  0  0  0  0  0  0  0  0  0  0
   -5.5040   -2.2010  -16.8820 C   0  0  0  0  0  0  0  0  0  0  0  0
   -0.3280   -1.1920  -20.5140 C   0  0  0  0  0  0  0  0  0  0  0  0
   -1.8620   -0.8760  -18.5490 N   0  0  0  0  0  0  0  0  0  0  0  0
   -6.7810   -3.6500  -15.0350 Cl  0  0  0  0  0  0  0  0  0  0  0  0
  2 16  2  0
  3  7  1  0
  5 18  1  6
  5 12  1  0
  6  2  1  0
  6  5  1  0
  7  9  1  0
  8  4  1  0
  8 15  2  0
 10 13  2  0
 10  2  1  0
 11 18  1  0
 12  1  2  0
 12 14  1  0
 13  8  1  0
 15 19  1  0
 16 15  1  0
 16  1  1  0
 17  3  1  0
 17 11  1  0
 18  9  1  0
M  END
$$$$

     RDKit          3D

 19 21  0  0  0  0  0  0  0  0999 V2000
   -4.4400   -2.3960  -16.3160 C   0  0  0  0  0  0  0  0  0  0  0  0
   -5.7150   -1.4220  -18.1160 C   0  0  0  0  0  0  0  0  0  0  0  0
    0.0110    0.3010  -20.0090 O   0  0  0  0  0  0  0  0  0  0  0  0
   -9.2430   -2.6790  -16.6190 O   0  0  0  0  0  0  0  0  0  0  0  0
   -3.3290   -1.2800  -18.0820 C   0  0  0  0  0  0  0  0  0  0  0  0
   -4.5100   -1.0470  -18.6830 C   0  0  0  0  0  0  0  0  0  0  0  0
   -0.1100    0.4270  -18.8390 C   0  0  0  0  0  0  0  0  0  0  0  0
   -8.1150   -2.2570  -16.9940 C   0  0  0  0  0  0  0  0  0  0  0  0
   -1.4270    0.2940  -18.0730 C   0  0  0  0  0  0  0  0  0  0  0  0
   -6.8820   -1.0890  -18.7640 C   0  0  0  0  0  0  0  0  0  0  0  0
   -1.6550   -1.4380  -19.8130 C   0  0  0  0  0  0  0  0  0  0  0  0
   -3.2820   -1.9530  -16.9130 C   0  0  0  0  0  0  0  0  0  0  0  0
   -8.0800   -1.4710  -18.2310 C   0  0  0  0  0  0  0  0  0  0  0  0
   -2.0300   -2.2340  -16.0820 C   0  0  0  0  0  0  0  0  0  0  0  0
   -6.9060   -2.5270  -16.3970 C   0  0  2  0  0  0  0  0  0  0  0  0
   -5.7020   -2.1470  -16.9470 C   0  0  0  0  0  0  0  0  0  0  0  0
   -0.4530   -0.9510  -20.5920 C   0  0  0  0  0  0  0  0  0  0  0  0
   -2.1880   -0.8510  -18.7060 N   0  0  0  0  0  0  0  0  0  0  0  0
   -6.8450   -3.4190  -14.9640 Cl  0  0  0  0  0  0  0  0  0  0  0  0
  2 16  2  0
  3  7  1  0
  5 12  1  0
  6  2  1  0
  6  5  2  0
  7  9  1  0
  8  4  2  0
  8 15  1  0
 10 13  2  0
 10  2  1  0
 11 18  1  0
 12  1  2  0
 12 14  1  0
 13  8  1  0
 15 19  1  6
 16 15  1  0
 16  1  1  0
 17  3  1  0
 17 11  1  0
 18  5  1  0
 18  9  1  0
M  END
$$$$

     RDKit          3D

 19 21  0  0  0  0  0  0  0  0999 V2000
   -4.2180   -2.4690  -16.1990 C   0  0  0  0  0  0  0  0  0  0  0  0
   -5.4210   -1.5610  -18.0820 C   0  0  0  0  0  0  0  0  0  0  0  0
   -0.4770    0.7490  -19.7680 N   0  0  0  0  0  0  0  0  0  0  0  0
   -8.9110   -2.8750  -16.3790 O   0  0  0  0  0  0  0  0  0  0  0  0
   -2.9990   -1.3550  -17.9670 C   0  0  0  0  0  0  0  0  0  0  0  0
   -4.2050   -1.1940  -18.6810 C   0  0  0  0  0  0  0  0  0  0  0  0
   -0.0250    0.4580  -18.4510 C   0  0  0  0  0  0  0  0  0  0  0  0
   -7.8190   -2.4290  -17.0080 C   0  0  0  0  0  0  0  0  0  0  0  0
   -0.4610   -0.9480  -18.0040 C   0  0  0  0  0  0  0  0  0  0  0  0
   -6.6090   -1.3210  -18.7180 C   0  0  0  0  0  0  0  0  0  0  0  0
   -1.7840   -1.2440  -20.0400 C   0  0  0  0  0  0  0  0  0  0  0  0
   -3.0120   -1.9240  -16.7670 C   0  0  0  0  0  0  0  0  0  0  0  0
   -7.7550   -1.7340  -18.1970 C   0  0  0  0  0  0  0  0  0  0  0  0
   -1.7440   -1.9270  -15.9740 C   0  0  0  0  0  0  0  0  0  0  0  0
   -6.6200   -2.6120  -16.3920 C   0  0  0  0  0  0  0  0  0  0  0  0
   -5.4290   -2.2100  -16.8980 C   0  0  0  0  0  0  0  0  0  0  0  0
   -0.5120   -0.5660  -20.5060 C   0  0  0  0  0  0  0  0  0  0  0  0
   -1.8250   -1.0660  -18.5870 N   0  0  0  0  0  0  0  0  0  0  0  0
   -6.6080   -3.3030  -14.8830 Cl  0  0  0  0  0  0  0  0  0  0  0  0
  2 16  2  0
  3  7  1  0
  5 12  1  0
  6  2  1  0
  6  5  2  0
  7  9  1  0
  8 15  2  0
  8  4  1  0
 10 13  2  0
 10  2  1  0
 11 18  1  0
 12  1  2  0
 12 14  1  0
 13  8  1  0
 15 19  1  0
 16 15  1  0
 16  1  1  0
 17 11  1  0
 17  3  1  0
 18  9  1  0
 18  5  1  0
M  END
$$$$

     RDKit          3D

 19 20  0  0  0  0  0  0  0  0999 V2000
   -4.4860   -2.5920  -16.0890 N   0  0  0  0  0  0  0  0  0  0  0  0
   -5.5760   -1.6000  -17.9500 C   0  0  0  0  0  0  0  0  0  0  0  0
    0.0920    0.0960  -20.3410 S   0  0  0  0  0  0  0  0  0  0  0  0
   -9.3220   -2.6650  -16.3750 F   0  0  0  0  0  0  0  0  0  0  0  0
   -3.2380   -1.6980  -17.9510 C   0  0  2  0  0  0  0  0  0  0  0  0
   -4.3480   -1.3440  -18.5040 O   0  0  0  0  0  0  0  0  0  0  0  0
   -0.3370    0.5740  -18.6670 C   0  0  0  0  0  0  0  0  0  0  0  0
   -8.0850   -2.2150  -16.8690 C   0  0  0  0  0  0  0  0  0  0  0  0
   -1.0950   -0.5210  -17.8760 C   0  0  0  0  0  0  0  0  0  0  0  0
   -6.7910   -1.1850  -18.5470 C   0  0  0  0  0  0  0  0  0  0  0  0
   -1.2930   -2.5020  -19.3100 C   0  0  0  0  0  0  0  0  0  0  0  0
   -3.2750   -2.2070  -16.5160 C   0  0  0  0  0  0  0  0  0  0  0  0
   -7.9880   -1.4710  -18.0000 C   0  0  0  0  0  0  0  0  0  0  0  0
   -2.2930   -2.2880  -15.8810 O   0  0  0  0  0  0  0  0  0  0  0  0
   -6.8800   -2.6810  -16.1890 C   0  0  0  0  0  0  0  0  0  0  0  0
   -5.6260   -2.2900  -16.7660 C   0  0  0  0  0  0  0  0  0  0  0  0
   -0.2400   -1.4430  -20.8440 C   0  0  0  0  0  0  0  0  0  0  0  0
   -1.9440   -1.4780  -18.7380 C   0  0  1  0  0  0  0  0  0  0  0  0
   -6.8500   -3.4390  -15.0360 N   0  0  0  0  0  0  0  0  0  0  0  0
  2 16  2  0
  3  7  1  0
  5 18  1  0
  5 12  1  0
  5  6  1  1
  6  2  1  0
  7  9  1  0
  8  4  1  0
  8 15  2  0
 10 13  2  0
 10  2  1  0
 12  1  1  0
 12 14  2  0
 13  8  1  0
 15 19  1  0
 16 15  1  0
 16  1  1  0
 17  3  1  0
 18 11  1  1
 18  9  1  0
M  END
$$$$

     RDKit          3D

 19 21  0  0  0  0  0  0  0  0999 V2000
   -4.3840   -2.4180  -16.0810 C   0  0  0  0  0  0  0  0  0  0  0  0
   -5.4810   -1.5790  -18.1440 C   0  0  0  0  0  0  0  0  0  0  0  0
   -0.0700    0.6370  -19.8280 C   0  0  0  0  0  0  0  0  0  0  0  0
   -9.1530   -2.8450  -16.6720 O   0  0  0  0  0  0  0  0  0  0  0  0
   -2.9820   -1.5260  -18.0000 C   0  0  0  0  0  0  0  0  0  0  0  0
   -4.1990   -1.2320  -18.6860 C   0  0  0  0  0  0  0  0  0  0  0  0
   -0.0550    0.5410  -18.2810 C   0  0  0  0  0  0  0  0  0  0  0  0
   -8.0110   -2.3990  -17.1740 C   0  0  0  0  0  0  0  0  0  0  0  0
   -0.6330   -0.7190  -17.6940 C   0  0  0  0  0  0  0  0  0  0  0  0
   -6.6650   -1.3000  -18.8970 C   0  0  0  0  0  0  0  0  0  0  0  0
   -1.3090   -1.6510  -19.7960 C   0  0  0  0  0  0  0  0  0  0  0  0
   -3.1460   -2.1530  -16.6390 C   0  0  0  0  0  0  0  0  0  0  0  0
   -7.8440   -1.7210  -18.3830 C   0  0  0  0  0  0  0  0  0  0  0  0
   -2.1620   -2.4360  -15.9540 O   0  0  0  0  0  0  0  0  0  0  0  0
   -6.8440   -2.6410  -16.3880 C   0  0  0  0  0  0  0  0  0  0  0  0
   -5.5270   -2.2280  -16.8690 C   0  0  0  0  0  0  0  0  0  0  0  0
   -0.6850   -0.5070  -20.6430 C   0  0  0  0  0  0  0  0  0  0  0  0
   -1.7590   -1.1610  -18.5080 N   0  0  0  0  0  0  0  0  0  0  0  0
   -7.0500   -3.4790  -14.9590 Cl  0  0  0  0  0  0  0  0  0  0  0  0
  2 16  2  0
  3  7  2  0
  5 12  1  0
  6  2  1  0
  6  5  2  0
  7  9  1  0
  8  4  1  0
  8 15  2  0
 10 13  2  0
 10  2  1  0
 11 18  1  0
 12  1  1  0
 12 14  2  0
 13  8  1  0
 15 19  1  0
 16 15  1  0
 16  1  1  0
 17  3  1  0
 17 11  1  0
 18  5  1  0
 18  9  1  0
M  END
$$$$

     RDKit          3D

 19 21  0  0  0  0  0  0  0  0999 V2000
   -4.2150   -2.3240  -16.1600 C   0  0  0  0  0  0  0  0  0  0  0  0
   -5.4840   -1.5560  -18.1460 C   0  0  0  0  0  0  0  0  0  0  0  0
    0.0550    0.7200  -20.0030 N   0  0  0  0  0  0  0  0  0  0  0  0
   -9.2130   -2.7540  -16.5830 O   0  0  0  0  0  0  0  0  0  0  0  0
   -3.0640   -1.2800  -18.0100 C   0  0  0  0  0  0  0  0  0  0  0  0
   -4.2560   -1.1370  -18.6690 C   0  0  0  0  0  0  0  0  0  0  0  0
   -0.1310    0.8390  -18.5340 C   0  0  0  0  0  0  0  0  0  0  0  0
   -7.9640   -2.3420  -17.0300 C   0  0  0  0  0  0  0  0  0  0  0  0
   -0.7460   -0.2560  -17.9130 C   0  0  0  0  0  0  0  0  0  0  0  0
   -6.6640   -1.3160  -18.8500 C   0  0  0  0  0  0  0  0  0  0  0  0
   -1.8000   -0.8920  -20.0950 C   0  0  0  0  0  0  0  0  0  0  0  0
   -3.0640   -1.7620  -16.7080 C   0  0  0  0  0  0  0  0  0  0  0  0
   -7.9000   -1.6670  -18.3210 C   0  0  0  0  0  0  0  0  0  0  0  0
   -1.8100   -1.6050  -16.0640 O   0  0  0  0  0  0  0  0  0  0  0  0
   -6.7750   -2.6040  -16.3830 C   0  0  0  0  0  0  0  0  0  0  0  0
   -5.5020   -2.1600  -16.8560 C   0  0  0  0  0  0  0  0  0  0  0  0
   -0.6190   -0.2500  -20.7350 C   0  0  0  0  0  0  0  0  0  0  0  0
   -1.8940   -0.8540  -18.6000 N   0  0  0  0  0  0  0  0  0  0  0  0
   -6.7480   -3.3530  -14.8710 Cl  0  0  0  0  0  0  0  0  0  0  0  0
  2 16  2  0
  3  7  2  0
  5 12  1  0
  6  2  1  0
  6  5  2  0
  7  9  1  0
  8  4  1  0
  8 15  2  0
 10 13  2  0
 10  2  1  0
 11 18  1  0
 12  1  2  0
 12 14  1  0
 13  8  1  0
 15 19  1  0
 16 15  1  0
 16  1  1  0
 17 11  2  0
 17  3  1  0
 18  5  1  0
 18  9  1  0
M  END
$$$$

     RDKit          3D

 19 21  0  0  0  0  0  0  0  0999 V2000
   -4.1420   -2.5270  -16.2280 C   0  0  0  0  0  0  0  0  0  0  0  0
   -5.3030   -1.6530  -18.0440 C   0  0  0  0  0  0  0  0  0  0  0  0
   -0.4470    0.6050  -20.0150 O   0  0  0  0  0  0  0  0  0  0  0  0
   -9.1270   -2.5900  -16.5300 O   0  0  0  0  0  0  0  0  0  0  0  0
   -2.9290   -1.4860  -17.9360 N   0  0  0  0  0  0  0  0  0  0  0  0
   -4.1130   -1.3620  -18.5730 C   0  0  0  0  0  0  0  0  0  0  0  0
    0.2630    0.5290  -18.4170 C   0  0  0  0  0  0  0  0  0  0  0  0
   -7.8960   -2.3150  -16.9860 C   0  0  0  0  0  0  0  0  0  0  0  0
   -0.6060   -0.5440  -17.8860 C   0  0  0  0  0  0  0  0  0  0  0  0
   -6.4810   -1.3090  -18.7290 C   0  0  0  0  0  0  0  0  0  0  0  0
   -1.4870   -1.3710  -20.0230 C   0  0  0  0  0  0  0  0  0  0  0  0
   -2.8860   -2.0640  -16.7520 C   0  0  0  0  0  0  0  0  0  0  0  0
   -7.7480   -1.6380  -18.2270 C   0  0  0  0  0  0  0  0  0  0  0  0
   -1.9060   -2.2920  -16.0420 O   0  0  0  0  0  0  0  0  0  0  0  0
   -6.7340   -2.6360  -16.3280 C   0  0  0  0  0  0  0  0  0  0  0  0
   -5.3580   -2.2770  -16.7920 C   0  0  0  0  0  0  0  0  0  0  0  0
   -0.2360   -0.6010  -20.5100 C   0  0  0  0  0  0  0  0  0  0  0  0
   -1.8900   -0.7840  -18.6760 C   0  0  1  0  0  0  0  0  0  0  0  0
   -6.9150   -3.4350  -14.8910 Cl  0  0  0  0  0  0  0  0  0  0  0  0
  2 16  2  0
  3  7  1  0
  5 12  1  0
  6  2  1  0
  6  5  1  0
  7  9  1  0
  8  4  1  0
  8 15  2  0
 10 13  2  0
 10  2  1  0
 11 18  1  0
 12  1  1  0
 12 14  2  0
 13  8  1  0
 15 19  1  0
 16 15  1  0
 16  1  1  0
 17 11  1  0
 17  3  1  0
 18  5  1  1
 18  9  1  0
M  END
$$$$

     RDKit          3D

 19 21  0  0  0  0  0  0  0  0999 V2000
   -4.3710   -2.4710  -16.1710 C   0  0  0  0  0  0  0  0  0  0  0  0
   -5.5580   -1.5340  -18.1170 C   0  0  0  0  0  0  0  0  0  0  0  0
   -0.1750    0.3720  -20.2290 O   0  0  0  0  0  0  0  0  0  0  0  0
   -9.3070   -2.8000  -16.6500 O   0  0  0  0  0  0  0  0  0  0  0  0
   -3.1390   -1.3170  -17.8980 C   0  0  0  0  0  0  0  0  0  0  0  0
   -4.3560   -1.0750  -18.5420 C   0  0  0  0  0  0  0  0  0  0  0  0
    0.3250    0.4170  -18.8930 C   0  0  0  0  0  0  0  0  0  0  0  0
   -7.9940   -2.3530  -17.0730 C   0  0  0  0  0  0  0  0  0  0  0  0
   -1.0480    0.4160  -18.1290 C   0  0  0  0  0  0  0  0  0  0  0  0
   -6.6600   -1.3830  -18.8050 N   0  0  0  0  0  0  0  0  0  0  0  0
   -1.5680   -1.6510  -19.7310 C   0  0  0  0  0  0  0  0  0  0  0  0
   -3.2120   -1.9970  -16.7120 C   0  0  0  0  0  0  0  0  0  0  0  0
   -7.8930   -1.7430  -18.4200 C   0  0  0  0  0  0  0  0  0  0  0  0
   -1.9750   -2.1630  -15.9310 C   0  0  0  0  0  0  0  0  0  0  0  0
   -6.8590   -2.4930  -16.3490 N   0  0  0  0  0  0  0  0  0  0  0  0
   -5.5440   -2.2170  -16.8910 C   0  0  0  0  0  0  0  0  0  0  0  0
   -0.4030   -1.1110  -20.5270 C   0  0  0  0  0  0  0  0  0  0  0  0
   -2.0710   -0.6600  -18.6020 N   0  0  0  0  0  0  0  0  0  0  0  0
   -6.9260   -3.1590  -15.0810 C   0  0  0  0  0  0  0  0  0  0  0  0
  2 16  2  0
  3  7  1  0
  5 12  1  0
  6  2  1  0
  6  5  2  0
  7  9  1  0
  8  4  2  0
  8 15  1  0
 10 13  2  0
 10  2  1  0
 11 18  1  0
 12  1  2  0
 12 14  1  0
 13  8  1  0
 15 19  1  0
 16 15  1  0
 16  1  1  0
 17  3  1  0
 17 11  1  0
 18  9  1  0
 18  5  1  0
M  END
$$$$

     RDKit          3D

 19 21  0  0  0  0  0  0  0  0999 V2000
   -4.5120   -2.2090  -16.3380 N   0  0  0  0  0  0  0  0  0  0  0  0
   -5.6860   -1.3830  -18.2000 C   0  0  0  0  0  0  0  0  0  0  0  0
    0.1470    0.1850  -20.0750 N   0  0  0  0  0  0  0  0  0  0  0  0
   -9.1620   -2.8970  -16.8100 O   0  0  0  0  0  0  0  0  0  0  0  0
   -3.3130   -1.1630  -18.0820 C   0  0  0  0  0  0  0  0  0  0  0  0
   -4.5190   -0.9330  -18.7200 N   0  0  0  0  0  0  0  0  0  0  0  0
    0.2940   -0.1970  -18.6890 C   0  0  0  0  0  0  0  0  0  0  0  0
   -8.0290   -2.3590  -17.1960 C   0  0  0  0  0  0  0  0  0  0  0  0
   -1.0940    0.3220  -18.1700 C   0  0  0  0  0  0  0  0  0  0  0  0
   -6.8190   -1.2550  -18.8560 C   0  0  0  0  0  0  0  0  0  0  0  0
   -1.6430   -1.4560  -19.8710 C   0  0  0  0  0  0  0  0  0  0  0  0
   -3.3220   -1.8180  -16.9140 C   0  0  0  0  0  0  0  0  0  0  0  0
   -8.0210   -1.7490  -18.4210 C   0  0  0  0  0  0  0  0  0  0  0  0
   -2.0330   -2.1720  -16.2490 C   0  0  0  0  0  0  0  0  0  0  0  0
   -6.8510   -2.5380  -16.5090 N   0  0  0  0  0  0  0  0  0  0  0  0
   -5.6690   -2.0600  -16.9980 C   0  0  0  0  0  0  0  0  0  0  0  0
   -0.4840   -0.9550  -20.6670 C   0  0  0  0  0  0  0  0  0  0  0  0
   -2.1230   -0.5440  -18.7760 C   0  0  1  0  0  0  0  0  0  0  0  0
   -6.8950   -3.2430  -15.2280 C   0  0  0  0  0  0  0  0  0  0  0  0
  2 16  2  0
  3  7  1  0
  5 12  1  0
  6  2  1  0
  6  5  2  0
  7  9  1  0
  8  4  2  0
  8 15  1  0
 10 13  2  0
 10  2  1  0
 11 18  1  0
 12  1  2  0
 12 14  1  0
 13  8  1  0
 15 19  1  0
 16 15  1  0
 16  1  1  0
 17  3  1  0
 17 11  1  0
 18  9  1  0
 18  5  1  1
M  END
$$$$

     RDKit          3D

 19 21  0  0  0  0  0  0  0  0999 V2000
   -4.4400   -2.3290  -16.2590 C   0  0  0  0  0  0  0  0  0  0  0  0
   -5.6440   -1.5160  -18.2270 C   0  0  0  0  0  0  0  0  0  0  0  0
   -0.2180    0.8770  -19.8940 C   0  0  0  0  0  0  0  0  0  0  0  0
   -9.1840   -3.1440  -16.6110 O   0  0  0  0  0  0  0  0  0  0  0  0
   -3.3010   -1.1520  -18.0890 C   0  0  0  0  0  0  0  0  0  0  0  0
   -4.4310   -1.0910  -18.8020 C   0  0  0  0  0  0  0  0  0  0  0  0
   -0.0550    0.7890  -18.3730 C   0  0  0  0  0  0  0  0  0  0  0  0
   -8.0230   -2.6250  -17.0630 C   0  0  0  0  0  0  0  0  0  0  0  0
   -0.9400   -0.2410  -17.7100 C   0  0  0  0  0  0  0  0  0  0  0  0
   -6.9040   -1.3580  -18.8630 C   0  0  0  0  0  0  0  0  0  0  0  0
   -1.7910   -1.0780  -19.9430 C   0  0  0  0  0  0  0  0  0  0  0  0
   -3.3020   -1.8370  -16.8080 C   0  0  0  0  0  0  0  0  0  0  0  0
   -8.0610   -1.8600  -18.2740 C   0  0  0  0  0  0  0  0  0  0  0  0
   -1.8340   -2.1360  -16.0590 Cl  0  0  0  0  0  0  0  0  0  0  0  0
   -6.8030   -2.6980  -16.4410 C   0  0  0  0  0  0  0  0  0  0  0  0
   -5.6400   -2.1790  -16.9480 C   0  0  0  0  0  0  0  0  0  0  0  0
   -0.5470   -0.4610  -20.5260 C   0  0  0  0  0  0  0  0  0  0  0  0
   -2.0340   -0.7100  -18.5900 N   0  0  0  0  0  0  0  0  0  0  0  0
   -6.7600   -3.4000  -14.9140 Cl  0  0  0  0  0  0  0  0  0  0  0  0
  2 16  2  0
  3  7  1  0
  5 12  1  0
  6  2  1  0
  6  5  2  0
  7  9  1  0
  8  4  1  0
  8 15  2  0
 10 13  2  0
 10  2  1  0
 11 18  1  0
 12  1  2  0
 12 14  1  0
 13  8  1  0
 15 19  1  0
 16 15  1  0
 16  1  1  0
 17 11  1  0
 17  3  1  0
 18  5  1  0
 18  9  1  0
M  END
$$$$

     RDKit          3D

 19 21  0  0  0  0  0  0  0  0999 V2000
   -4.4290   -2.6930  -16.0980 C   0  0  0  0  0  0  0  0  0  0  0  0
   -5.5710   -1.6330  -18.0260 C   0  0  0  0  0  0  0  0  0  0  0  0
   -0.0630   -0.1120  -20.0500 C   0  0  0  0  0  0  0  0  0  0  0  0
   -9.2520   -2.4210  -16.3270 F   0  0  0  0  0  0  0  0  0  0  0  0
   -3.2100   -1.7320  -17.8700 N   0  0  0  0  0  0  0  0  0  0  0  0
   -4.4170   -1.3600  -18.5800 C   0  0  0  0  0  0  0  0  0  0  0  0
   -0.3310    0.3320  -18.8410 C   0  0  0  0  0  0  0  0  0  0  0  0
   -8.0520   -2.2610  -16.8330 C   0  0  0  0  0  0  0  0  0  0  0  0
   -1.2960   -0.2070  -17.8530 N   0  0  0  0  0  0  0  0  0  0  0  0
   -6.7770   -1.2050  -18.6190 C   0  0  0  0  0  0  0  0  0  0  0  0
   -1.4340   -2.1980  -19.4840 C   0  0  0  0  0  0  0  0  0  0  0  0
   -3.2050   -2.2640  -16.6430 C   0  0  0  0  0  0  0  0  0  0  0  0
   -7.9770   -1.6080  -18.0590 C   0  0  0  0  0  0  0  0  0  0  0  0
   -2.0800   -2.3280  -15.8770 O   0  0  0  0  0  0  0  0  0  0  0  0
   -6.8940   -2.6950  -16.1950 C   0  0  0  0  0  0  0  0  0  0  0  0
   -5.6530   -2.3390  -16.7670 C   0  0  0  0  0  0  0  0  0  0  0  0
   -0.5390   -1.4540  -20.3700 C   0  0  0  0  0  0  0  0  0  0  0  0
   -1.8630   -1.5060  -18.5040 C   0  0  2  0  0  0  0  0  0  0  0  0
   -6.9580   -3.4550  -14.8960 C   0  0  0  0  0  0  0  0  0  0  0  0
  2 16  2  0
  3  7  2  0
  5 12  1  0
  6  2  1  0
  6  5  1  0
  7  9  1  0
  8  4  1  0
  8 15  2  0
 10 13  2  0
 10  2  1  0
 12  1  1  0
 12 14  2  0
 13  8  1  0
 15 19  1  0
 16 15  1  0
 16  1  1  0
 17  3  1  0
 17 11  1  0
 18 11  1  0
 18  5  1  6
 18  9  1  0
M  END
$$$$

     RDKit          3D

 19 21  0  0  0  0  0  0  0  0999 V2000
   -4.3650   -2.5540  -16.1310 C   0  0  0  0  0  0  0  0  0  0  0  0
   -5.5350   -1.6580  -17.9680 C   0  0  0  0  0  0  0  0  0  0  0  0
   -0.0210    0.7440  -19.8570 N   0  0  0  0  0  0  0  0  0  0  0  0
   -9.2350   -2.6920  -16.6200 F   0  0  0  0  0  0  0  0  0  0  0  0
   -3.1260   -1.4740  -17.9180 C   0  0  0  0  0  0  0  0  0  0  0  0
   -4.3560   -1.2100  -18.5530 C   0  0  0  0  0  0  0  0  0  0  0  0
   -0.1970    0.7530  -18.4070 C   0  0  0  0  0  0  0  0  0  0  0  0
   -8.0530   -2.3180  -16.9660 C   0  0  0  0  0  0  0  0  0  0  0  0
   -0.5790   -0.7010  -17.8330 C   0  0  0  0  0  0  0  0  0  0  0  0
   -6.7520   -1.2830  -18.6460 C   0  0  0  0  0  0  0  0  0  0  0  0
   -1.6370   -1.4060  -19.8890 C   0  0  0  0  0  0  0  0  0  0  0  0
   -3.1590   -2.0890  -16.6510 C   0  0  0  0  0  0  0  0  0  0  0  0
   -7.9470   -1.6470  -18.1700 C   0  0  0  0  0  0  0  0  0  0  0  0
   -2.0640   -2.4240  -16.0420 O   0  0  0  0  0  0  0  0  0  0  0  0
   -6.8700   -2.6050  -16.2640 C   0  0  0  0  0  0  0  0  0  0  0  0
   -5.5950   -2.2780  -16.7530 C   0  0  0  0  0  0  0  0  0  0  0  0
   -0.6910   -0.4770  -20.5780 C   0  0  0  0  0  0  0  0  0  0  0  0
   -1.8780   -0.9860  -18.4960 N   0  0  0  0  0  0  0  0  0  0  0  0
   -7.0540   -3.2980  -14.9020 Cl  0  0  0  0  0  0  0  0  0  0  0  0
  2 16  2  0
  3  7  1  0
  5 12  1  0
  6  2  1  0
  6  5  2  0
  7  9  1  0
  8  4  1  0
  8 15  2  0
 10 13  2  0
 10  2  1  0
 11 18  1  0
 12  1  2  0
 12 14  1  0
 13  8  1  0
 15 19  1  0
 16 15  1  0
 16  1  1  0
 17 11  1  0
 17  3  1  0
 18  5  1  0
 18  9  1  0
M  END
$$$$

     RDKit          3D

 19 21  0  0  0  0  0  0  0  0999 V2000
   -4.2210   -2.4310  -16.1040 C   0  0  0  0  0  0  0  0  0  0  0  0
   -5.5080   -1.3830  -17.9980 C   0  0  0  0  0  0  0  0  0  0  0  0
    0.2130    0.4430  -20.1820 C   0  0  0  0  0  0  0  0  0  0  0  0
   -9.1450   -2.8520  -16.5700 O   0  0  0  0  0  0  0  0  0  0  0  0
   -3.0330   -1.2340  -17.9900 N   0  0  0  0  0  0  0  0  0  0  0  0
   -4.2890   -1.0420  -18.6560 C   0  0  0  0  0  0  0  0  0  0  0  0
   -0.2960    1.0690  -18.9750 C   0  0  0  0  0  0  0  0  0  0  0  0
   -7.9950   -2.3250  -16.9730 C   0  0  0  0  0  0  0  0  0  0  0  0
   -0.8740   -0.0490  -18.0710 C   0  0  0  0  0  0  0  0  0  0  0  0
   -6.7760   -1.1220  -18.6620 C   0  0  0  0  0  0  0  0  0  0  0  0
   -1.6030   -1.1880  -19.9840 C   0  0  0  0  0  0  0  0  0  0  0  0
   -2.9800   -1.8500  -16.7490 C   0  0  0  0  0  0  0  0  0  0  0  0
   -7.9670   -1.4750  -18.1310 C   0  0  0  0  0  0  0  0  0  0  0  0
   -1.8970   -1.9190  -16.1480 O   0  0  0  0  0  0  0  0  0  0  0  0
   -6.7910   -2.5620  -16.2270 C   0  0  0  0  0  0  0  0  0  0  0  0
   -5.4590   -2.1510  -16.7570 C   0  0  0  0  0  0  0  0  0  0  0  0
   -0.6610   -0.6020  -20.7360 C   0  0  0  0  0  0  0  0  0  0  0  0
   -1.9130   -0.7010  -18.6650 C   0  0  1  0  0  0  0  0  0  0  0  0
   -6.7860   -3.1850  -15.0560 F   0  0  0  0  0  0  0  0  0  0  0  0
  2 16  2  0
  3  7  1  0
  5 12  1  0
  6  2  1  0
  6  5  1  0
  7  9  1  0
  8  4  1  0
  8 15  2  0
 10 13  2  0
 10  2  1  0
 12 14  2  0
 12  1  1  0
 13  8  1  0
 15 19  1  0
 16 15  1  0
 16  1  1  0
 17  3  1  0
 17 11  2  0
 18 11  1  0
 18  9  1  0
 18  5  1  1
M  END
$$$$

     RDKit          3D

 19 21  0  0  0  0  0  0  0  0999 V2000
   -4.1760   -2.4270  -16.1970 C   0  0  0  0  0  0  0  0  0  0  0  0
   -5.3290   -1.6090  -18.1890 C   0  0  0  0  0  0  0  0  0  0  0  0
   -0.4510    0.4830  -20.0460 O   0  0  0  0  0  0  0  0  0  0  0  0
   -9.0690   -2.9110  -16.8660 F   0  0  0  0  0  0  0  0  0  0  0  0
   -2.8470   -1.4820  -18.0820 C   0  0  0  0  0  0  0  0  0  0  0  0
   -4.0390   -1.2880  -18.7660 C   0  0  0  0  0  0  0  0  0  0  0  0
    0.1730    0.3540  -18.7360 C   0  0  0  0  0  0  0  0  0  0  0  0
   -7.8410   -2.4190  -17.1670 C   0  0  0  0  0  0  0  0  0  0  0  0
   -0.4030   -0.8220  -18.2200 C   0  0  0  0  0  0  0  0  0  0  0  0
   -6.5010   -1.3380  -18.8980 C   0  0  0  0  0  0  0  0  0  0  0  0
   -1.2450   -1.8350  -19.9420 C   0  0  0  0  0  0  0  0  0  0  0  0
   -2.8920   -1.9950  -16.7460 C   0  0  0  0  0  0  0  0  0  0  0  0
   -7.7470   -1.7170  -18.3930 C   0  0  0  0  0  0  0  0  0  0  0  0
   -1.7120   -2.1580  -15.9560 O   0  0  0  0  0  0  0  0  0  0  0  0
   -6.6900   -2.6160  -16.4280 C   0  0  0  0  0  0  0  0  0  0  0  0
   -5.3650   -2.2110  -16.9230 C   0  0  0  0  0  0  0  0  0  0  0  0
   -0.5340   -0.8040  -20.7820 C   0  0  0  0  0  0  0  0  0  0  0  0
   -1.5990   -1.2000  -18.6180 N   0  0  0  0  0  0  0  0  0  0  0  0
   -6.7800   -3.4170  -14.8630 Cl  0  0  0  0  0  0  0  0  0  0  0  0
  2 16  2  0
  3  7  1  0
  5 12  1  0
  6  2  1  0
  6  5  2  0
  7  9  1  0
  8  4  1  0
  8 15  2  0
 10 13  2  0
 10  2  1  0
 11 18  1  0
 12  1  2  0
 12 14  1  0
 13  8  1  0
 15 19  1  0
 16 15  1  0
 16  1  1  0
 17  3  1  0
 17 11  1  0
 18  9  1  0
 18  5  1  0
M  END
$$$$

     RDKit          3D

 19 21  0  0  0  0  0  0  0  0999 V2000
   -4.3210   -2.7270  -16.3170 C   0  0  0  0  0  0  0  0  0  0  0  0
   -5.5550   -1.6450  -18.1810 C   0  0  0  0  0  0  0  0  0  0  0  0
   -0.1120    0.2860  -20.2800 O   0  0  0  0  0  0  0  0  0  0  0  0
   -9.3150   -2.6970  -16.5810 O   0  0  0  0  0  0  0  0  0  0  0  0
   -3.0280   -1.6550  -18.1090 C   0  0  0  0  0  0  0  0  0  0  0  0
   -4.2410   -1.2640  -18.7510 C   0  0  0  0  0  0  0  0  0  0  0  0
   -0.2970    0.6580  -18.7870 C   0  0  0  0  0  0  0  0  0  0  0  0
   -8.0660   -2.3170  -17.0390 C   0  0  0  0  0  0  0  0  0  0  0  0
   -0.4910   -0.7590  -17.9760 C   0  0  0  0  0  0  0  0  0  0  0  0
   -6.7410   -1.2670  -18.8760 C   0  0  0  0  0  0  0  0  0  0  0  0
   -1.3520   -1.9150  -19.8450 C   0  0  0  0  0  0  0  0  0  0  0  0
   -3.1480   -2.3890  -16.9060 C   0  0  0  0  0  0  0  0  0  0  0  0
   -7.9480   -1.6700  -18.3490 C   0  0  0  0  0  0  0  0  0  0  0  0
   -1.9550   -2.8780  -16.3930 F   0  0  0  0  0  0  0  0  0  0  0  0
   -6.8590   -2.5830  -16.3500 C   0  0  0  0  0  0  0  0  0  0  0  0
   -5.5710   -2.3250  -16.9720 C   0  0  0  0  0  0  0  0  0  0  0  0
   -0.6880   -0.8350  -20.8140 C   0  0  0  0  0  0  0  0  0  0  0  0
   -1.7180   -1.3860  -18.5740 N   0  0  0  0  0  0  0  0  0  0  0  0
   -6.8600   -3.1050  -15.1530 O   0  0  0  0  0  0  0  0  0  0  0  0
  2 16  2  0
  3  7  1  0
  5 12  1  0
  6  2  1  0
  6  5  2  0
  7  9  1  0
  8  4  1  0
  8 15  2  0
 10 13  2  0
 10  2  1  0
 11 18  1  0
 12 14  1  0
 12  1  2  0
 13  8  1  0
 15 19  1  0
 16 15  1  0
 16  1  1  0
 17  3  1  0
 17 11  1  0
 18  5  1  0
 18  9  1  0
M  END
$$$$

     RDKit          3D

 19 21  0  0  0  0  0  0  0  0999 V2000
   -4.3820   -2.6440  -16.2360 C   0  0  0  0  0  0  0  0  0  0  0  0
   -5.7680   -1.4010  -17.9140 C   0  0  0  0  0  0  0  0  0  0  0  0
    0.4150   -0.0400  -19.9100 O   0  0  0  0  0  0  0  0  0  0  0  0
   -9.3880   -2.8770  -16.5760 O   0  0  0  0  0  0  0  0  0  0  0  0
   -3.1040   -1.3790  -17.9140 C   0  0  0  0  0  0  0  0  0  0  0  0
   -4.3670   -1.0430  -18.5440 C   0  0  0  0  0  0  0  0  0  0  0  0
    0.4340    0.0540  -18.4880 C   0  0  0  0  0  0  0  0  0  0  0  0
   -8.1390   -2.3480  -17.0030 C   0  0  0  0  0  0  0  0  0  0  0  0
   -0.9940    0.0650  -17.8760 C   0  0  0  0  0  0  0  0  0  0  0  0
   -6.9300   -1.1220  -18.6580 C   0  0  0  0  0  0  0  0  0  0  0  0
   -1.7100   -1.1460  -19.9260 C   0  0  0  0  0  0  0  0  0  0  0  0
   -3.1730   -2.2020  -16.7340 C   0  0  0  0  0  0  0  0  0  0  0  0
   -8.0150   -1.6220  -18.1940 C   0  0  0  0  0  0  0  0  0  0  0  0
   -1.7970   -2.6440  -15.8780 Cl  0  0  0  0  0  0  0  0  0  0  0  0
   -6.9740   -2.6260  -16.3490 N   0  0  0  0  0  0  0  0  0  0  0  0
   -5.6020   -2.1820  -16.8120 C   0  0  0  0  0  0  0  0  0  0  0  0
   -0.2630   -1.1180  -20.3950 C   0  0  0  0  0  0  0  0  0  0  0  0
   -1.8310   -0.9410  -18.4700 N   0  0  0  0  0  0  0  0  0  0  0  0
   -7.1240   -3.3900  -15.0370 C   0  0  0  0  0  0  0  0  0  0  0  0
  2 16  2  0
  3  7  1  0
  5 12  1  0
  6  2  1  0
  6  5  2  0
  7  9  1  0
  8  4  2  0
  8 15  1  0
 10 13  2  0
 10  2  1  0
 11 18  1  0
 12  1  2  0
 12 14  1  0
 13  8  1  0
 15 19  1  0
 16 15  1  0
 16  1  1  0
 17 11  1  0
 17  3  1  0
 18  5  1  0
 18  9  1  0
M  END
$$$$

     RDKit          3D

 19 21  0  0  0  0  0  0  0  0999 V2000
   -4.4730   -2.4440  -16.2720 C   0  0  0  0  0  0  0  0  0  0  0  0
   -5.7290   -1.4910  -18.1150 C   0  0  0  0  0  0  0  0  0  0  0  0
   -0.0650    0.4900  -20.1290 N   0  0  0  0  0  0  0  0  0  0  0  0
   -9.3040   -2.5680  -16.4690 F   0  0  0  0  0  0  0  0  0  0  0  0
   -3.2530   -1.2670  -18.0730 C   0  0  0  0  0  0  0  0  0  0  0  0
   -4.5030   -0.9800  -18.6250 C   0  0  0  0  0  0  0  0  0  0  0  0
   -0.1370    0.4780  -18.7040 C   0  0  0  0  0  0  0  0  0  0  0  0
   -8.1500   -2.2530  -16.9680 C   0  0  0  0  0  0  0  0  0  0  0  0
   -1.5570    0.4490  -18.3230 C   0  0  0  0  0  0  0  0  0  0  0  0
   -6.9580   -1.2610  -18.7300 C   0  0  0  0  0  0  0  0  0  0  0  0
   -1.6340   -1.4640  -19.8100 C   0  0  0  0  0  0  0  0  0  0  0  0
   -3.2660   -1.9530  -16.8260 C   0  0  0  0  0  0  0  0  0  0  0  0
   -8.1510   -1.6570  -18.2030 C   0  0  0  0  0  0  0  0  0  0  0  0
   -2.0930   -2.1430  -16.0960 C   0  0  0  0  0  0  0  0  0  0  0  0
   -6.9550   -2.5720  -16.2850 C   0  0  0  0  0  0  0  0  0  0  0  0
   -5.7190   -2.2050  -16.8890 C   0  0  0  0  0  0  0  0  0  0  0  0
   -0.6150   -0.7540  -20.5690 C   0  0  0  0  0  0  0  0  0  0  0  0
   -2.1040   -0.8230  -18.5600 N   0  0  0  0  0  0  0  0  0  0  0  0
   -6.9520   -3.2420  -15.1390 F   0  0  0  0  0  0  0  0  0  0  0  0
  2 16  2  0
  3  7  1  0
  5 12  1  0
  6  2  1  0
  6  5  2  0
  7  9  1  0
  8  4  1  0
  8 15  2  0
 10 13  2  0
 10  2  1  0
 11 18  1  0
 12  1  2  0
 12 14  1  0
 13  8  1  0
 15 19  1  0
 16 15  1  0
 16  1  1  0
 17  3  1  0
 17 11  2  0
 18  9  1  0
 18  5  1  0
M  END
$$$$

     RDKit          3D

 19 21  0  0  0  0  0  0  0  0999 V2000
   -4.1850   -2.4030  -16.1950 C   0  0  0  0  0  0  0  0  0  0  0  0
   -5.3900   -1.6270  -18.1320 C   0  0  0  0  0  0  0  0  0  0  0  0
   -0.4090    0.7520  -20.0460 O   0  0  0  0  0  0  0  0  0  0  0  0
   -9.0260   -2.8780  -16.5210 O   0  0  0  0  0  0  0  0  0  0  0  0
   -2.9480   -1.4820  -18.0250 C   0  0  0  0  0  0  0  0  0  0  0  0
   -4.1880   -1.2980  -18.7870 C   0  0  0  0  0  0  0  0  0  0  0  0
   -0.3160    0.7980  -18.6600 C   0  0  0  0  0  0  0  0  0  0  0  0
   -7.8240   -2.4420  -16.9870 C   0  0  0  0  0  0  0  0  0  0  0  0
   -0.5160   -0.5170  -18.0190 C   0  0  0  0  0  0  0  0  0  0  0  0
   -6.6410   -1.4160  -18.7510 C   0  0  0  0  0  0  0  0  0  0  0  0
   -1.6530   -1.2770  -20.0470 C   0  0  0  0  0  0  0  0  0  0  0  0
   -3.0160   -2.0600  -16.8180 C   0  0  0  0  0  0  0  0  0  0  0  0
   -7.8530   -1.8030  -18.2370 C   0  0  0  0  0  0  0  0  0  0  0  0
   -1.8750   -2.2330  -16.0550 O   0  0  0  0  0  0  0  0  0  0  0  0
   -6.6490   -2.5850  -16.3230 C   0  0  0  0  0  0  0  0  0  0  0  0
   -5.3840   -2.2160  -16.8540 C   0  0  0  0  0  0  0  0  0  0  0  0
   -0.4790   -0.5210  -20.5710 C   0  0  0  0  0  0  0  0  0  0  0  0
   -1.8050   -0.9760  -18.6170 N   0  0  0  0  0  0  0  0  0  0  0  0
   -6.8540   -3.2930  -14.8060 Cl  0  0  0  0  0  0  0  0  0  0  0  0
  2 16  2  0
  3  7  1  0
  5 12  1  0
  6  2  1  0
  6  5  2  0
  7  9  1  0
  8  4  1  0
  8 15  2  0
 10 13  2  0
 10  2  1  0
 11 18  1  0
 12  1  2  0
 12 14  1  0
 13  8  1  0
 15 19  1  0
 16 15  1  0
 16  1  1  0
 17 11  1  0
 17  3  1  0
 18  5  1  0
 18  9  1  0
M  END
$$$$

     RDKit          3D

 19 21  0  0  0  0  0  0  0  0999 V2000
   -4.2430   -2.6040  -16.1740 C   0  0  0  0  0  0  0  0  0  0  0  0
   -5.5010   -1.6280  -18.0230 C   0  0  0  0  0  0  0  0  0  0  0  0
   -0.0280    0.2150  -20.0730 N   0  0  0  0  0  0  0  0  0  0  0  0
   -9.1500   -2.8010  -16.3200 O   0  0  0  0  0  0  0  0  0  0  0  0
   -3.0530   -1.5760  -17.9560 N   0  0  0  0  0  0  0  0  0  0  0  0
   -4.2160   -1.3190  -18.6050 C   0  0  0  0  0  0  0  0  0  0  0  0
   -0.1710    0.6110  -18.8240 C   0  0  0  0  0  0  0  0  0  0  0  0
   -7.9930   -2.4110  -16.7920 C   0  0  0  0  0  0  0  0  0  0  0  0
   -1.0740   -0.0210  -18.0470 C   0  0  0  0  0  0  0  0  0  0  0  0
   -6.7620   -1.2970  -18.6230 C   0  0  0  0  0  0  0  0  0  0  0  0
   -1.3090   -1.8340  -19.5950 C   0  0  0  0  0  0  0  0  0  0  0  0
   -3.0870   -2.1830  -16.7580 C   0  0  0  0  0  0  0  0  0  0  0  0
   -7.9340   -1.7390  -18.0690 C   0  0  0  0  0  0  0  0  0  0  0  0
   -1.9310   -2.2160  -16.0750 O   0  0  0  0  0  0  0  0  0  0  0  0
   -6.7730   -2.6320  -16.1160 C   0  0  0  0  0  0  0  0  0  0  0  0
   -5.4950   -2.2790  -16.7560 C   0  0  0  0  0  0  0  0  0  0  0  0
   -0.3400   -1.0620  -20.4060 C   0  0  0  0  0  0  0  0  0  0  0  0
   -1.7920   -1.2250  -18.5040 C   0  0  0  0  0  0  0  0  0  0  0  0
   -6.7740   -3.2430  -14.9290 F   0  0  0  0  0  0  0  0  0  0  0  0
  2 16  2  0
  3  7  2  0
  5 12  1  0
  6  2  1  0
  6  5  1  0
  7  9  1  0
  8  4  1  0
  8 15  2  0
 10 13  2  0
 10  2  1  0
 11 18  1  0
 12  1  1  0
 12 14  2  0
 13  8  1  0
 15 19  1  0
 16  1  1  0
 16 15  1  0
 17  3  1  0
 17 11  2  0
 18  9  2  0
 18  5  1  0
M  END
$$$$

     RDKit          3D

 19 21  0  0  0  0  0  0  0  0999 V2000
   -4.3820   -2.5350  -16.0420 C   0  0  0  0  0  0  0  0  0  0  0  0
   -5.5000   -1.6670  -18.0730 C   0  0  0  0  0  0  0  0  0  0  0  0
    0.2700    0.0950  -19.6250 O   0  0  0  0  0  0  0  0  0  0  0  0
   -9.1430   -2.9240  -16.5250 O   0  0  0  0  0  0  0  0  0  0  0  0
   -3.0790   -1.5740  -17.9100 C   0  0  0  0  0  0  0  0  0  0  0  0
   -4.2750   -1.3370  -18.6070 C   0  0  0  0  0  0  0  0  0  0  0  0
   -0.2960    0.5460  -18.4520 C   0  0  0  0  0  0  0  0  0  0  0  0
   -8.0220   -2.5020  -16.9860 C   0  0  0  0  0  0  0  0  0  0  0  0
   -0.9710   -0.5460  -17.7750 C   0  0  0  0  0  0  0  0  0  0  0  0
   -6.6940   -1.4150  -18.7840 C   0  0  0  0  0  0  0  0  0  0  0  0
   -1.6710   -1.3940  -19.8580 C   0  0  0  0  0  0  0  0  0  0  0  0
   -3.1780   -2.0870  -16.6860 C   0  0  0  0  0  0  0  0  0  0  0  0
   -7.9210   -1.8380  -18.2130 C   0  0  0  0  0  0  0  0  0  0  0  0
   -2.0470   -2.3240  -15.9960 F   0  0  0  0  0  0  0  0  0  0  0  0
   -6.8410   -2.6610  -16.3060 C   0  0  0  0  0  0  0  0  0  0  0  0
   -5.5730   -2.2690  -16.7990 C   0  0  0  0  0  0  0  0  0  0  0  0
   -0.7530   -0.4820  -20.5060 C   0  0  0  0  0  0  0  0  0  0  0  0
   -1.8600   -1.3410  -18.4710 N   0  0  0  0  0  0  0  0  0  0  0  0
   -6.8900   -3.1220  -15.0600 F   0  0  0  0  0  0  0  0  0  0  0  0
  2 16  2  0
  3  7  1  0
  5 12  1  0
  6  2  1  0
  6  5  2  0
  7  9  1  0
  8  4  1  0
  8 15  2  0
 10 13  2  0
 10  2  1  0
 11 18  1  0
 12  1  2  0
 12 14  1  0
 13  8  1  0
 15 19  1  0
 16 15  1  0
 16  1  1  0
 17 11  1  0
 17  3  1  0
 18  5  1  0
 18  9  1  0
M  END
$$$$

     RDKit          3D

 19 21  0  0  0  0  0  0  0  0999 V2000
   -4.1530   -2.4210  -16.2190 C   0  0  0  0  0  0  0  0  0  0  0  0
   -5.4670   -1.5800  -18.1410 C   0  0  0  0  0  0  0  0  0  0  0  0
    0.1640    0.7080  -20.0300 C   0  0  0  0  0  0  0  0  0  0  0  0
   -9.1070   -2.7230  -16.3550 O   0  0  0  0  0  0  0  0  0  0  0  0
   -2.9550   -1.6300  -18.1680 N   0  0  0  0  0  0  0  0  0  0  0  0
   -4.1980   -1.1660  -18.8180 C   0  0  0  0  0  0  0  0  0  0  0  0
   -0.0300    0.9310  -18.5270 C   0  0  0  0  0  0  0  0  0  0  0  0
   -7.9440   -2.3250  -16.9550 C   0  0  0  0  0  0  0  0  0  0  0  0
   -0.9440   -0.0400  -17.7600 C   0  0  0  0  0  0  0  0  0  0  0  0
   -6.6680   -1.1770  -18.7270 C   0  0  0  0  0  0  0  0  0  0  0  0
   -1.2880   -1.3300  -19.9970 C   0  0  0  0  0  0  0  0  0  0  0  0
   -2.9700   -1.8970  -16.7800 C   0  0  0  0  0  0  0  0  0  0  0  0
   -7.8700   -1.5890  -18.1390 C   0  0  0  0  0  0  0  0  0  0  0  0
   -1.9710   -1.7710  -16.1060 O   0  0  0  0  0  0  0  0  0  0  0  0
   -6.7080   -2.5620  -16.2780 C   0  0  0  0  0  0  0  0  0  0  0  0
   -5.4500   -2.1980  -16.8750 C   0  0  0  0  0  0  0  0  0  0  0  0
   -0.4170   -0.4340  -20.7250 C   0  0  0  0  0  0  0  0  0  0  0  0
   -1.9920   -0.6550  -18.7700 C   0  0  1  0  0  0  0  0  0  0  0  0
   -6.7360   -3.1680  -15.1080 O   0  0  0  0  0  0  0  0  0  0  0  0
  2 16  2  0
  3  7  1  0
  5 12  1  0
  6  5  1  0
  6  2  1  0
  7  9  1  0
  8  4  1  0
  8 15  2  0
 10  2  1  0
 10 13  2  0
 12  1  1  0
 12 14  2  0
 13  8  1  0
 15 19  1  0
 16 15  1  0
 16  1  1  0
 17  3  2  0
 17 11  1  0
 18 11  1  0
 18  5  1  1
 18  9  1  0
M  END
$$$$

     RDKit          3D

 19 21  0  0  0  0  0  0  0  0999 V2000
   -4.2690   -2.2540  -15.9960 C   0  0  0  0  0  0  0  0  0  0  0  0
   -5.3920   -1.6400  -18.1840 C   0  0  0  0  0  0  0  0  0  0  0  0
   -0.6340    0.6960  -19.6500 O   0  0  0  0  0  0  0  0  0  0  0  0
   -8.9610   -2.4850  -16.4690 O   0  0  0  0  0  0  0  0  0  0  0  0
   -2.8670   -1.8240  -18.1360 C   0  0  2  0  0  0  0  0  0  0  0  0
   -4.0860   -1.2360  -18.7520 C   0  0  0  0  0  0  0  0  0  0  0  0
   -0.0120    0.2950  -18.4520 C   0  0  0  0  0  0  0  0  0  0  0  0
   -7.8370   -2.2280  -16.9780 C   0  0  0  0  0  0  0  0  0  0  0  0
   -0.3650   -1.2430  -18.1400 C   0  0  0  0  0  0  0  0  0  0  0  0
   -6.5340   -1.2660  -18.7940 C   0  0  0  0  0  0  0  0  0  0  0  0
   -1.4650   -1.5370  -20.1190 C   0  0  0  0  0  0  0  0  0  0  0  0
   -2.9480   -1.6630  -16.5960 C   0  0  2  0  0  0  0  0  0  0  0  0
   -7.7930   -1.5060  -18.2260 C   0  0  0  0  0  0  0  0  0  0  0  0
   -1.8620   -2.3540  -15.9430 O   0  0  0  0  0  0  0  0  0  0  0  0
   -6.6600   -2.6350  -16.4150 N   0  0  0  0  0  0  0  0  0  0  0  0
   -5.4130   -2.4180  -16.9820 C   0  0  2  0  0  0  0  0  0  0  0  0
   -0.6500   -0.3300  -20.6520 C   0  0  0  0  0  0  0  0  0  0  0  0
   -1.6340   -1.2620  -18.7440 N   0  0  0  0  0  0  0  0  0  0  0  0
   -6.8480   -3.3790  -15.1240 C   0  0  0  0  0  0  0  0  0  0  0  0
  2 16  1  0
  3  7  1  0
  5  6  1  0
  5 12  1  0
  6  2  1  0
  7  9  1  0
  8  4  2  0
  8 15  1  0
 10 13  1  0
 10  2  2  0
 11 18  1  0
 12  1  1  0
 12 14  1  1
 13  8  1  0
 15 19  1  0
 16 15  1  0
 16  1  1  1
 17 11  1  0
 17  3  1  0
 18  9  1  0
  5 18  1  6
M  END
$$$$

     RDKit          3D

 19 21  0  0  0  0  0  0  0  0999 V2000
   -4.3850   -2.5290  -16.2660 C   0  0  0  0  0  0  0  0  0  0  0  0
   -5.5110   -1.5330  -18.2730 C   0  0  0  0  0  0  0  0  0  0  0  0
   -0.1940    0.4150  -20.1310 O   0  0  0  0  0  0  0  0  0  0  0  0
   -9.2790   -2.6060  -16.8660 N   0  0  0  0  0  0  0  0  0  0  0  0
   -3.0570   -1.6200  -18.0830 C   0  0  0  0  0  0  0  0  0  0  0  0
   -4.2580   -1.2350  -18.8010 C   0  0  0  0  0  0  0  0  0  0  0  0
   -0.1600    0.4670  -18.6960 C   0  0  0  0  0  0  0  0  0  0  0  0
   -8.0380   -2.2280  -17.2960 C   0  0  0  0  0  0  0  0  0  0  0  0
   -0.5190   -0.8880  -18.0600 C   0  0  0  0  0  0  0  0  0  0  0  0
   -6.6860   -1.3030  -18.9970 C   0  0  0  0  0  0  0  0  0  0  0  0
   -1.4610   -1.7550  -20.0000 C   0  0  0  0  0  0  0  0  0  0  0  0
   -3.1550   -2.2870  -16.8710 C   0  0  0  0  0  0  0  0  0  0  0  0
   -7.9030   -1.6970  -18.4720 N   0  0  0  0  0  0  0  0  0  0  0  0
   -2.0400   -2.6570  -16.2800 F   0  0  0  0  0  0  0  0  0  0  0  0
   -6.9390   -2.5640  -16.4730 C   0  0  0  0  0  0  0  0  0  0  0  0
   -5.5800   -2.2100  -16.9680 C   0  0  0  0  0  0  0  0  0  0  0  0
   -0.3080   -0.9470  -20.6510 C   0  0  0  0  0  0  0  0  0  0  0  0
   -1.7620   -1.2990  -18.5910 N   0  0  0  0  0  0  0  0  0  0  0  0
   -7.0960   -3.3040  -15.0070 Cl  0  0  0  0  0  0  0  0  0  0  0  0
  2 16  2  0
  3  7  1  0
  5 12  1  0
  6  2  1  0
  6  5  2  0
  7  9  1  0
  8  4  1  0
  8 15  2  0
 10 13  2  0
 10  2  1  0
 11 18  1  0
 12 14  1  0
 12  1  2  0
 13  8  1  0
 15 19  1  0
 16 15  1  0
 16  1  1  0
 17  3  1  0
 17 11  1  0
 18  5  1  0
 18  9  1  0
M  END
$$$$

     RDKit          3D

 19 21  0  0  0  0  0  0  0  0999 V2000
   -4.3380   -2.5150  -16.2810 C   0  0  0  0  0  0  0  0  0  0  0  0
   -5.5870   -1.4100  -18.0450 C   0  0  0  0  0  0  0  0  0  0  0  0
    0.0910   -0.0260  -20.3000 O   0  0  0  0  0  0  0  0  0  0  0  0
   -9.3250   -2.7930  -16.7110 O   0  0  0  0  0  0  0  0  0  0  0  0
   -3.1940   -1.2990  -18.1230 C   0  0  0  0  0  0  0  0  0  0  0  0
   -4.4160   -1.0070  -18.6270 C   0  0  0  0  0  0  0  0  0  0  0  0
    0.0870    0.3880  -18.9140 C   0  0  0  0  0  0  0  0  0  0  0  0
   -8.0520   -2.2970  -17.0780 C   0  0  0  0  0  0  0  0  0  0  0  0
   -1.1980    0.1700  -18.2190 C   0  0  0  0  0  0  0  0  0  0  0  0
   -6.8090   -1.0440  -18.5940 N   0  0  0  0  0  0  0  0  0  0  0  0
   -1.6760   -1.6280  -19.9070 C   0  0  0  0  0  0  0  0  0  0  0  0
   -3.2030   -2.0320  -16.8380 C   0  0  0  0  0  0  0  0  0  0  0  0
   -7.9750   -1.4580  -18.1990 C   0  0  0  0  0  0  0  0  0  0  0  0
   -2.0580   -2.2480  -16.3540 F   0  0  0  0  0  0  0  0  0  0  0  0
   -6.8520   -2.6520  -16.4220 C   0  0  0  0  0  0  0  0  0  0  0  0
   -5.5710   -2.2290  -16.8470 C   0  0  0  0  0  0  0  0  0  0  0  0
   -0.2980   -1.3810  -20.4110 C   0  0  0  0  0  0  0  0  0  0  0  0
   -2.0630   -0.9010  -18.7230 N   0  0  0  0  0  0  0  0  0  0  0  0
   -7.0070   -3.6680  -14.9670 Cl  0  0  0  0  0  0  0  0  0  0  0  0
  2 16  2  0
  3  7  1  0
  5 12  1  0
  6  5  2  0
  6  2  1  0
  7  9  1  0
  8  4  1  0
  8 15  2  0
 10 13  2  0
 10  2  1  0
 11 18  1  0
 12 14  1  0
 12  1  2  0
 13  8  1  0
 15 19  1  0
 16 15  1  0
 16  1  1  0
 17  3  1  0
 17 11  1  0
 18  9  1  0
 18  5  1  0
M  END
$$$$

     RDKit          3D

 19 21  0  0  0  0  0  0  0  0999 V2000
   -4.4350   -2.6020  -16.2920 C   0  0  0  0  0  0  0  0  0  0  0  0
   -5.6680   -1.4770  -18.0490 C   0  0  0  0  0  0  0  0  0  0  0  0
   -0.0910    0.2370  -20.1410 O   0  0  0  0  0  0  0  0  0  0  0  0
   -9.1750   -2.5570  -16.3610 F   0  0  0  0  0  0  0  0  0  0  0  0
   -3.2990   -1.2090  -17.9420 C   0  0  0  0  0  0  0  0  0  0  0  0
   -4.5270   -1.0290  -18.5360 C   0  0  0  0  0  0  0  0  0  0  0  0
   -0.1340    0.5090  -18.7150 C   0  0  0  0  0  0  0  0  0  0  0  0
   -8.0300   -2.2630  -16.9210 C   0  0  0  0  0  0  0  0  0  0  0  0
   -1.6100    0.5520  -18.2250 C   0  0  0  0  0  0  0  0  0  0  0  0
   -6.8270   -1.1470  -18.6530 C   0  0  0  0  0  0  0  0  0  0  0  0
   -1.9450   -1.2990  -19.8880 C   0  0  0  0  0  0  0  0  0  0  0  0
   -3.3070   -2.0320  -16.8810 C   0  0  0  0  0  0  0  0  0  0  0  0
   -8.0100   -1.4960  -18.0690 C   0  0  0  0  0  0  0  0  0  0  0  0
   -2.1480   -2.2950  -16.2860 O   0  0  0  0  0  0  0  0  0  0  0  0
   -6.8100   -2.6450  -16.3460 C   0  0  0  0  0  0  0  0  0  0  0  0
   -5.6150   -2.2910  -16.8970 C   0  0  0  0  0  0  0  0  0  0  0  0
   -0.5880   -1.0660  -20.3400 C   0  0  0  0  0  0  0  0  0  0  0  0
   -2.1780   -0.7740  -18.5270 N   0  0  0  0  0  0  0  0  0  0  0  0
   -6.8140   -3.4710  -15.0710 C   0  0  0  0  0  0  0  0  0  0  0  0
  2 16  2  0
  3  7  1  0
  5 12  1  0
  6  2  1  0
  6  5  2  0
  7  9  1  0
  8  4  1  0
  8 15  2  0
 10 13  2  0
 10  2  1  0
 11 18  1  0
 12  1  2  0
 12 14  1  0
 13  8  1  0
 15 19  1  0
 16 15  1  0
 16  1  1  0
 17  3  1  0
 17 11  1  0
 18  9  1  0
 18  5  1  0
M  END
$$$$

     RDKit          3D

 19 21  0  0  0  0  0  0  0  0999 V2000
   -4.3000   -2.4940  -16.1720 C   0  0  0  0  0  0  0  0  0  0  0  0
   -5.4520   -1.5730  -18.1360 C   0  0  0  0  0  0  0  0  0  0  0  0
   -0.1800    0.7000  -19.9360 O   0  0  0  0  0  0  0  0  0  0  0  0
   -9.0570   -2.6630  -16.4330 O   0  0  0  0  0  0  0  0  0  0  0  0
   -2.9780   -1.5430  -17.9380 C   0  0  0  0  0  0  0  0  0  0  0  0
   -4.1670   -1.2180  -18.6340 C   0  0  0  0  0  0  0  0  0  0  0  0
   -0.4820    0.9010  -18.5580 C   0  0  0  0  0  0  0  0  0  0  0  0
   -7.9110   -2.2770  -17.0910 C   0  0  0  0  0  0  0  0  0  0  0  0
   -0.8320   -0.3120  -17.7490 C   0  0  0  0  0  0  0  0  0  0  0  0
   -6.6780   -1.3090  -18.8610 C   0  0  0  0  0  0  0  0  0  0  0  0
   -1.7380   -0.9960  -19.9850 C   0  0  0  0  0  0  0  0  0  0  0  0
   -3.0660   -2.1590  -16.7740 C   0  0  0  0  0  0  0  0  0  0  0  0
   -7.8440   -1.6580  -18.2820 C   0  0  0  0  0  0  0  0  0  0  0  0
   -1.9390   -2.4460  -16.0880 O   0  0  0  0  0  0  0  0  0  0  0  0
   -6.7570   -2.6520  -16.3990 C   0  0  0  0  0  0  0  0  0  0  0  0
   -5.4930   -2.2590  -16.8880 C   0  0  0  0  0  0  0  0  0  0  0  0
   -0.3850   -0.6390  -20.4170 C   0  0  0  0  0  0  0  0  0  0  0  0
   -1.7380   -1.2190  -18.5070 N   0  0  0  0  0  0  0  0  0  0  0  0
   -6.8160   -3.5130  -14.8530 Cl  0  0  0  0  0  0  0  0  0  0  0  0
  2 16  2  0
  3  7  1  0
  5 12  1  0
  6  2  1  0
  6  5  2  0
  7  9  1  0
  8  4  1  0
  8 15  2  0
 10 13  2  0
 10  2  1  0
 11 18  1  0
 12  1  2  0
 12 14  1  0
 13  8  1  0
 15 19  1  0
 16 15  1  0
 16  1  1  0
 17 11  1  0
 17  3  1  0
 18  5  1  0
 18  9  1  0
M  END
$$$$

     RDKit          3D

 19 21  0  0  0  0  0  0  0  0999 V2000
   -4.4650   -2.4990  -15.9220 C   0  0  0  0  0  0  0  0  0  0  0  0
   -5.5140   -1.6790  -17.9460 C   0  0  0  0  0  0  0  0  0  0  0  0
   -0.2860    0.0110  -20.3210 N   0  0  0  0  0  0  0  0  0  0  0  0
   -9.2800   -2.5570  -16.5990 N   0  0  0  0  0  0  0  0  0  0  0  0
   -3.0870   -1.5350  -17.7740 C   0  0  0  0  0  0  0  0  0  0  0  0
   -4.2810   -1.4430  -18.4420 C   0  0  0  0  0  0  0  0  0  0  0  0
    0.2240    0.2230  -18.9030 C   0  0  0  0  0  0  0  0  0  0  0  0
   -8.1120   -2.2200  -17.0610 C   0  0  0  0  0  0  0  0  0  0  0  0
   -0.9790    0.0010  -17.9750 C   0  0  0  0  0  0  0  0  0  0  0  0
   -6.5680   -1.3660  -18.7460 C   0  0  0  0  0  0  0  0  0  0  0  0
   -1.3310   -2.0190  -19.4410 C   0  0  0  0  0  0  0  0  0  0  0  0
   -3.2220   -1.9980  -16.4570 C   0  0  0  0  0  0  0  0  0  0  0  0
   -7.8770   -1.5820  -18.2590 C   0  0  0  0  0  0  0  0  0  0  0  0
   -1.9370   -2.1200  -15.6950 C   0  0  0  0  0  0  0  0  0  0  0  0
   -6.9460   -2.6730  -16.2310 N   0  0  0  0  0  0  0  0  0  0  0  0
   -5.6260   -2.3400  -16.6520 C   0  0  0  0  0  0  0  0  0  0  0  0
   -0.3980   -1.4920  -20.4740 C   0  0  0  0  0  0  0  0  0  0  0  0
   -1.7970   -1.1460  -18.3510 N   0  0  0  0  0  0  0  0  0  0  0  0
   -7.1920   -3.4220  -15.0390 N   0  0  0  0  0  0  0  0  0  0  0  0
  2 16  1  0
  3  7  1  0
  5 12  2  0
  6  2  1  0
  6  5  1  0
  7  9  1  0
  8  4  1  0
  8 15  1  0
 10 13  1  0
 10  2  2  0
 11 18  1  0
 12  1  1  0
 12 14  1  0
 13  8  2  0
 15 19  1  0
 16 15  1  0
 16  1  2  0
 17  3  1  0
 17 11  1  0
 18  9  1  0
 18  5  1  0
M  END
$$$$

     RDKit          3D

 19 21  0  0  0  0  0  0  0  0999 V2000
   -4.4510   -2.2770  -16.1030 C   0  0  0  0  0  0  0  0  0  0  0  0
   -5.5320   -1.5360  -18.1940 C   0  0  0  0  0  0  0  0  0  0  0  0
    0.2710    0.2020  -19.7170 C   0  0  0  0  0  0  0  0  0  0  0  0
   -9.2000   -2.7540  -16.7750 O   0  0  0  0  0  0  0  0  0  0  0  0
   -3.0560   -1.4710  -17.9170 C   0  0  0  0  0  0  0  0  0  0  0  0
   -4.2750   -1.2360  -18.7130 C   0  0  0  0  0  0  0  0  0  0  0  0
    0.0500    0.3280  -18.3680 C   0  0  0  0  0  0  0  0  0  0  0  0
   -8.0500   -2.3920  -17.2030 C   0  0  0  0  0  0  0  0  0  0  0  0
   -0.6750   -0.7440  -17.7360 C   0  0  0  0  0  0  0  0  0  0  0  0
   -6.7310   -1.3290  -18.9180 C   0  0  0  0  0  0  0  0  0  0  0  0
   -1.4650   -1.4350  -19.8420 C   0  0  0  0  0  0  0  0  0  0  0  0
   -3.2400   -1.9770  -16.6760 C   0  0  0  0  0  0  0  0  0  0  0  0
   -7.9570   -1.7460  -18.4570 C   0  0  0  0  0  0  0  0  0  0  0  0
   -2.1460   -2.3590  -15.9720 O   0  0  0  0  0  0  0  0  0  0  0  0
   -6.8990   -2.5290  -16.3980 C   0  0  2  0  0  0  0  0  0  0  0  0
   -5.6130   -2.1530  -16.9050 C   0  0  0  0  0  0  0  0  0  0  0  0
   -0.5160   -0.6640  -20.4870 C   0  0  0  0  0  0  0  0  0  0  0  0
   -1.7540   -1.2690  -18.5130 C   0  0  2  0  0  0  0  0  0  0  0  0
   -6.9930   -3.3250  -15.0940 C   0  0  0  0  0  0  0  0  0  0  0  0
  2 16  2  0
  3  7  1  0
  5 12  1  0
  6  2  1  0
  6  5  2  0
  7  9  1  0
  8  4  2  0
  8 15  1  0
 10 13  2  0
 10  2  1  0
 11 18  1  0
 12  1  2  0
 12 14  1  0
 13  8  1  0
 15 19  1  6
 16 15  1  0
 16  1  1  0
 17 11  2  0
 17  3  1  0
 18  5  1  6
 18  9  1  0
M  END
$$$$

     RDKit          3D

 19 21  0  0  0  0  0  0  0  0999 V2000
   -4.2580   -2.2890  -16.2660 C   0  0  0  0  0  0  0  0  0  0  0  0
   -5.4440   -1.5850  -18.1830 C   0  0  0  0  0  0  0  0  0  0  0  0
   -0.0280    0.5610  -20.2200 N   0  0  0  0  0  0  0  0  0  0  0  0
   -9.1130   -2.9010  -16.6100 O   0  0  0  0  0  0  0  0  0  0  0  0
   -3.0550   -1.3050  -18.0690 N   0  0  0  0  0  0  0  0  0  0  0  0
   -4.2460   -1.3050  -18.7990 C   0  0  0  0  0  0  0  0  0  0  0  0
   -0.3270    0.9110  -18.9550 C   0  0  0  0  0  0  0  0  0  0  0  0
   -7.9390   -2.4180  -17.0700 C   0  0  0  0  0  0  0  0  0  0  0  0
   -1.0860    0.0870  -18.1140 C   0  0  0  0  0  0  0  0  0  0  0  0
   -6.6610   -1.3920  -18.9240 C   0  0  0  0  0  0  0  0  0  0  0  0
   -1.4340   -1.3170  -19.9340 C   0  0  0  0  0  0  0  0  0  0  0  0
   -3.0080   -1.8200  -16.7680 C   0  0  0  0  0  0  0  0  0  0  0  0
   -7.9020   -1.8260  -18.3680 C   0  0  0  0  0  0  0  0  0  0  0  0
   -1.9570   -1.7960  -16.1350 O   0  0  0  0  0  0  0  0  0  0  0  0
   -6.7010   -2.6530  -16.4040 C   0  0  0  0  0  0  0  0  0  0  0  0
   -5.4940   -2.1530  -16.9220 C   0  0  0  0  0  0  0  0  0  0  0  0
   -0.5800   -0.5710  -20.6830 C   0  0  0  0  0  0  0  0  0  0  0  0
   -1.8610   -0.8460  -18.6700 C   0  0  0  0  0  0  0  0  0  0  0  0
   -6.8020   -3.3160  -15.0750 C   0  0  0  0  0  0  0  0  0  0  0  0
  2 16  2  0
  3  7  2  0
  5 12  1  0
  6  2  1  0
  6  5  1  0
  7  9  1  0
  8  4  1  0
  8 15  2  0
 10 13  2  0
 10  2  1  0
 11 18  1  0
 12  1  1  0
 12 14  2  0
 13  8  1  0
 15 19  1  0
 16 15  1  0
 16  1  1  0
 17  3  1  0
 17 11  2  0
 18  9  2  0
 18  5  1  0
M  END
$$$$
