
     RDKit          3D

 19 22  0  0  0  0  0  0  0  0999 V2000
   -1.3400   -1.1210  -16.9400 C   0  0  0  0  0  0  0  0  0  0  0  0
   -3.6610   -1.8210  -16.8510 C   0  0  0  0  0  0  0  0  0  0  0  0
   -2.5940   -1.1630  -17.4350 C   0  0  0  0  0  0  0  0  0  0  0  0
   -8.1340   -3.2210  -16.3930 C   0  0  0  0  0  0  0  0  0  0  0  0
   -4.8470   -1.6660  -17.6730 C   0  0  0  0  0  0  0  0  0  0  0  0
   -6.1410   -3.0610  -15.3530 C   0  0  0  0  0  0  0  0  0  0  0  0
   -6.4840   -0.9950  -19.7820 C   0  0  0  0  0  0  0  0  0  0  0  0
   -4.3510   -1.0040  -18.7650 C   0  0  0  0  0  0  0  0  0  0  0  0
   -9.3340   -3.2070  -17.2520 C   0  0  0  0  0  0  0  0  0  0  0  0
   -3.0340   -0.7670  -18.5350 N   0  0  0  0  0  0  0  0  0  0  0  0
   -7.0160   -3.7230  -14.5740 O   0  0  0  0  0  0  0  0  0  0  0  0
   -3.3970   -2.3900  -15.6640 C   0  0  0  0  0  0  0  0  0  0  0  0
   -5.1260   -0.7110  -19.8700 C   0  0  0  0  0  0  0  0  0  0  0  0
   -6.2340   -2.0150  -17.6350 C   0  0  0  0  0  0  0  0  0  0  0  0
   -1.1070   -1.6460  -15.6730 C   0  0  0  0  0  0  0  0  0  0  0  0
   -6.8230   -2.6950  -16.5410 C   0  0  0  0  0  0  0  0  0  0  0  0
   -8.2160   -3.8050  -15.2350 N   0  0  0  0  0  0  0  0  0  0  0  0
   -7.0140   -1.6490  -18.6690 C   0  0  0  0  0  0  0  0  0  0  0  0
   -2.1660   -2.2800  -15.0730 C   0  0  0  0  0  0  0  0  0  0  0  0
  1 15  1  0
  2 12  1  0
  3  1  2  0
  3  2  1  0
  4 17  2  0
  5 14  1  0
  5  2  2  0
  6 11  1  0
  7 18  1  0
  8 10  2  0
  8  5  1  0
  9  4  1  0
 10  3  1  0
 12 19  2  0
 13  7  2  0
 13  8  1  0
 14 16  1  0
 15 19  1  0
 16  4  1  0
 16  6  2  0
 17 11  1  0
 18 14  2  0
M  END
$$$$

     RDKit          3D

 19 22  0  0  0  0  0  0  0  0999 V2000
   -1.3290   -0.3970  -17.2530 C   0  0  0  0  0  0  0  0  0  0  0  0
   -3.5500   -1.5270  -17.1320 C   0  0  0  0  0  0  0  0  0  0  0  0
   -2.5450   -0.7860  -17.8400 C   0  0  0  0  0  0  0  0  0  0  0  0
   -8.2380   -2.8100  -16.5210 C   0  0  0  0  0  0  0  0  0  0  0  0
   -4.8130   -1.4140  -17.9980 C   0  0  0  0  0  0  0  0  0  0  0  0
   -6.0740   -2.9450  -15.6530 N   0  0  0  0  0  0  0  0  0  0  0  0
   -6.5830   -0.8570  -20.1350 C   0  0  0  0  0  0  0  0  0  0  0  0
   -4.3370   -0.8600  -19.1630 C   0  0  0  0  0  0  0  0  0  0  0  0
   -9.3200   -2.5850  -17.1430 O   0  0  0  0  0  0  0  0  0  0  0  0
   -3.0310   -0.5520  -19.0140 N   0  0  0  0  0  0  0  0  0  0  0  0
   -6.9480   -3.6040  -14.7960 N   0  0  0  0  0  0  0  0  0  0  0  0
   -3.1970   -2.1230  -15.9450 N   0  0  0  0  0  0  0  0  0  0  0  0
   -5.2610   -0.5230  -20.2660 C   0  0  0  0  0  0  0  0  0  0  0  0
   -6.2360   -1.7890  -17.8850 C   0  0  0  0  0  0  0  0  0  0  0  0
   -1.0060   -1.0860  -16.0060 C   0  0  0  0  0  0  0  0  0  0  0  0
   -6.8410   -2.4450  -16.7610 C   0  0  0  0  0  0  0  0  0  0  0  0
   -8.2250   -3.5450  -15.2970 N   0  0  0  0  0  0  0  0  0  0  0  0
   -7.1310   -1.3620  -18.9630 C   0  0  0  0  0  0  0  0  0  0  0  0
   -1.8690   -1.9290  -15.4450 C   0  0  0  0  0  0  0  0  0  0  0  0
  1 15  1  0
  2 12  1  0
  3  1  2  0
  3  2  1  0
  4 17  1  0
  5 14  1  0
  5  2  2  0
  6 11  1  0
  7 18  1  0
  8 10  2  0
  8  5  1  0
  9  4  2  0
 10  3  1  0
 12 19  2  0
 13  7  2  0
 13  8  1  0
 14 16  1  0
 15 19  1  0
 16  4  1  0
 16  6  2  0
 17 11  2  0
 18 14  2  0
M  END
$$$$

     RDKit          3D

 19 22  0  0  0  0  0  0  0  0999 V2000
   -1.2830   -0.7700  -16.9760 C   0  0  0  0  0  0  0  0  0  0  0  0
   -3.5240   -1.6970  -16.9580 C   0  0  0  0  0  0  0  0  0  0  0  0
   -2.4980   -0.9410  -17.5080 C   0  0  0  0  0  0  0  0  0  0  0  0
   -7.9670   -3.2180  -16.3400 C   0  0  0  0  0  0  0  0  0  0  0  0
   -4.6780   -1.5350  -17.7440 C   0  0  0  0  0  0  0  0  0  0  0  0
   -5.8590   -3.0650  -15.4870 N   0  0  0  0  0  0  0  0  0  0  0  0
   -6.5710   -0.8820  -19.7940 C   0  0  0  0  0  0  0  0  0  0  0  0
   -4.3250   -0.8470  -18.8770 C   0  0  0  0  0  0  0  0  0  0  0  0
   -9.3400   -3.1170  -17.2550 S   0  0  0  0  0  0  0  0  0  0  0  0
   -3.0410   -0.5360  -18.7300 N   0  0  0  0  0  0  0  0  0  0  0  0
   -6.6080   -3.9070  -14.8210 N   0  0  0  0  0  0  0  0  0  0  0  0
   -3.2180   -2.4420  -15.8300 C   0  0  0  0  0  0  0  0  0  0  0  0
   -5.1650   -0.5240  -19.9340 C   0  0  0  0  0  0  0  0  0  0  0  0
   -6.0830   -1.8940  -17.6650 C   0  0  0  0  0  0  0  0  0  0  0  0
   -0.9960   -1.5260  -15.8720 C   0  0  0  0  0  0  0  0  0  0  0  0
   -6.6340   -2.6030  -16.4740 C   0  0  0  0  0  0  0  0  0  0  0  0
   -7.9180   -3.9800  -15.2660 N   0  0  0  0  0  0  0  0  0  0  0  0
   -6.8830   -1.5090  -18.6470 N   0  0  0  0  0  0  0  0  0  0  0  0
   -1.8910   -2.3100  -15.2790 C   0  0  0  0  0  0  0  0  0  0  0  0
  1 15  1  0
  2 12  1  0
  3  1  2  0
  3  2  1  0
  4 17  1  0
  5 14  1  0
  5  2  2  0
  6 11  1  0
  7 18  1  0
  8 10  2  0
  8  5  1  0
  9  4  2  0
 10  3  1  0
 12 19  2  0
 13  7  2  0
 13  8  1  0
 14 16  1  0
 15 19  1  0
 16  4  1  0
 16  6  2  0
 17 11  2  0
 18 14  2  0
M  END
$$$$

     RDKit          3D

 19 22  0  0  0  0  0  0  0  0999 V2000
   -1.2050   -0.5780  -16.8380 C   0  0  0  0  0  0  0  0  0  0  0  0
   -3.4260   -1.8820  -16.9140 C   0  0  0  0  0  0  0  0  0  0  0  0
   -2.4140   -0.9050  -17.5420 C   0  0  0  0  0  0  0  0  0  0  0  0
   -8.1020   -3.1010  -16.2440 C   0  0  0  0  0  0  0  0  0  0  0  0
   -4.6560   -1.6950  -17.7780 C   0  0  2  0  0  0  0  0  0  0  0  0
   -5.9510   -3.4600  -15.3930 N   0  0  0  0  0  0  0  0  0  0  0  0
   -6.4970   -0.9020  -19.6810 C   0  0  0  0  0  0  0  0  0  0  0  0
   -4.3460   -0.8030  -18.8740 C   0  0  0  0  0  0  0  0  0  0  0  0
   -9.3890   -2.7900  -16.9930 C   0  0  0  0  0  0  0  0  0  0  0  0
   -3.0350   -0.3570  -18.6970 N   0  0  0  0  0  0  0  0  0  0  0  0
   -6.7640   -4.0420  -14.6010 N   0  0  0  0  0  0  0  0  0  0  0  0
   -2.8990   -2.7890  -15.8380 C   0  0  0  0  0  0  0  0  0  0  0  0
   -5.2910   -0.4710  -19.8330 N   0  0  0  0  0  0  0  0  0  0  0  0
   -6.1080   -2.0100  -17.7050 C   0  0  0  0  0  0  0  0  0  0  0  0
   -0.7840   -1.4730  -15.7550 C   0  0  0  0  0  0  0  0  0  0  0  0
   -6.6780   -2.8130  -16.4770 C   0  0  0  0  0  0  0  0  0  0  0  0
   -8.0520   -3.8780  -15.0760 C   0  0  0  0  0  0  0  0  0  0  0  0
   -6.9310   -1.7160  -18.6780 N   0  0  0  0  0  0  0  0  0  0  0  0
   -1.6350   -2.5020  -15.2790 C   0  0  0  0  0  0  0  0  0  0  0  0
  1 15  2  0
  2 12  1  0
  3  2  2  0
  3  1  1  0
  4 17  1  0
  5  8  1  0
  5 14  1  1
  5  2  1  0
  6 11  2  0
  7 18  1  0
  8 10  2  0
  9  4  1  0
 10  3  1  0
 12 19  2  0
 13  7  2  0
 13  8  1  0
 14 16  1  0
 15 19  1  0
 16  4  2  0
 16  6  1  0
 17 11  1  0
 18 14  2  0
M  END
$$$$

     RDKit          3D

 19 22  0  0  0  0  0  0  0  0999 V2000
   -1.3980   -0.8010  -16.7700 C   0  0  0  0  0  0  0  0  0  0  0  0
   -3.7130   -1.7970  -16.8650 C   0  0  0  0  0  0  0  0  0  0  0  0
   -2.7060   -0.9940  -17.4770 C   0  0  0  0  0  0  0  0  0  0  0  0
   -8.1370   -3.2680  -16.2170 C   0  0  0  0  0  0  0  0  0  0  0  0
   -4.8850   -1.7110  -17.7420 C   0  0  0  0  0  0  0  0  0  0  0  0
   -6.1270   -3.3290  -15.4020 N   0  0  0  0  0  0  0  0  0  0  0  0
   -6.7050   -1.0160  -19.9010 C   0  0  0  0  0  0  0  0  0  0  0  0
   -4.4450   -0.9300  -18.8430 C   0  0  0  0  0  0  0  0  0  0  0  0
   -9.4580   -3.2120  -16.9760 S   0  0  0  0  0  0  0  0  0  0  0  0
   -3.0370   -0.5820  -18.7110 N   0  0  0  0  0  0  0  0  0  0  0  0
   -6.8890   -4.0230  -14.5950 C   0  0  0  0  0  0  0  0  0  0  0  0
   -3.4420   -2.4540  -15.6200 C   0  0  0  0  0  0  0  0  0  0  0  0
   -5.3080   -0.6530  -19.9290 C   0  0  0  0  0  0  0  0  0  0  0  0
   -6.2590   -2.1400  -17.6410 C   0  0  0  0  0  0  0  0  0  0  0  0
   -1.2350   -1.4510  -15.5400 C   0  0  0  0  0  0  0  0  0  0  0  0
   -6.8620   -2.8820  -16.4800 C   0  0  0  0  0  0  0  0  0  0  0  0
   -8.2000   -3.9360  -15.0280 N   0  0  0  0  0  0  0  0  0  0  0  0
   -7.1190   -1.7340  -18.7600 C   0  0  0  0  0  0  0  0  0  0  0  0
   -2.1820   -2.3080  -14.9860 C   0  0  0  0  0  0  0  0  0  0  0  0
  1 15  1  0
  2 12  1  0
  3  2  1  0
  3  1  2  0
  4 17  1  0
  5 14  1  0
  5  2  2  0
  6 11  2  0
  7 18  1  0
  8 10  2  0
  8  5  1  0
  9  4  2  0
 10  3  1  0
 12 19  2  0
 13  7  2  0
 13  8  1  0
 15 19  1  0
 16 14  1  0
 16  4  1  0
 16  6  1  0
 17 11  1  0
 18 14  2  0
M  END
$$$$

     RDKit          3D

 19 22  0  0  0  0  0  0  0  0999 V2000
   -1.3290   -1.0410  -16.5710 C   0  0  0  0  0  0  0  0  0  0  0  0
   -3.6370   -1.8580  -16.7470 C   0  0  0  0  0  0  0  0  0  0  0  0
   -2.4460   -1.0950  -17.2990 C   0  0  0  0  0  0  0  0  0  0  0  0
   -8.1860   -3.0930  -16.5830 N   0  0  0  0  0  0  0  0  0  0  0  0
   -4.7220   -1.6170  -17.7070 C   0  0  0  0  0  0  0  0  0  0  0  0
   -6.2880   -3.1550  -15.4910 C   0  0  0  0  0  0  0  0  0  0  0  0
   -6.4010   -0.9260  -19.8960 C   0  0  0  0  0  0  0  0  0  0  0  0
   -4.2180   -1.0080  -18.8570 C   0  0  0  0  0  0  0  0  0  0  0  0
   -9.3560   -2.7740  -17.3770 C   0  0  0  0  0  0  0  0  0  0  0  0
   -2.8160   -0.7920  -18.5570 N   0  0  0  0  0  0  0  0  0  0  0  0
   -7.1860   -3.9770  -14.8400 N   0  0  0  0  0  0  0  0  0  0  0  0
   -3.5540   -2.4590  -15.5290 C   0  0  0  0  0  0  0  0  0  0  0  0
   -5.0230   -0.7080  -19.9470 C   0  0  0  0  0  0  0  0  0  0  0  0
   -6.2480   -1.9440  -17.7250 C   0  0  0  0  0  0  0  0  0  0  0  0
   -1.2030   -1.6420  -15.3370 C   0  0  0  0  0  0  0  0  0  0  0  0
   -6.8740   -2.6740  -16.6530 C   0  0  0  0  0  0  0  0  0  0  0  0
   -8.3370   -3.8660  -15.4840 N   0  0  0  0  0  0  0  0  0  0  0  0
   -6.9620   -1.5220  -18.8200 C   0  0  0  0  0  0  0  0  0  0  0  0
   -2.3420   -2.3180  -14.8430 C   0  0  0  0  0  0  0  0  0  0  0  0
  1 15  1  0
  2 12  1  0
  3  2  1  0
  3  1  2  0
  4 17  1  0
  5  2  2  0
  6 11  1  0
  7 18  1  0
  8 10  2  0
  8  5  1  0
  9  4  1  0
 10  3  1  0
 12 19  2  0
 13  7  2  0
 13  8  1  0
 14  5  1  0
 14 16  1  0
 15 19  1  0
 16  4  1  0
 16  6  2  0
 17 11  2  0
 18 14  2  0
M  END
$$$$

     RDKit          3D

 19 22  0  0  0  0  0  0  0  0999 V2000
   -1.2680   -0.9630  -17.3210 C   0  0  0  0  0  0  0  0  0  0  0  0
   -3.5910   -1.7020  -17.0860 C   0  0  0  0  0  0  0  0  0  0  0  0
   -2.5640   -1.0610  -17.8000 C   0  0  0  0  0  0  0  0  0  0  0  0
   -8.1510   -2.7980  -16.5190 N   0  0  0  0  0  0  0  0  0  0  0  0
   -4.8250   -1.5170  -17.8420 C   0  0  0  0  0  0  0  0  0  0  0  0
   -6.2220   -2.9700  -15.4970 N   0  0  0  0  0  0  0  0  0  0  0  0
   -6.6120   -0.8060  -19.8000 C   0  0  0  0  0  0  0  0  0  0  0  0
   -4.4270   -0.8830  -19.0160 C   0  0  0  0  0  0  0  0  0  0  0  0
   -9.3030   -2.4340  -17.4450 C   0  0  0  0  0  0  0  0  0  0  0  0
   -3.0590   -0.5430  -18.9800 N   0  0  0  0  0  0  0  0  0  0  0  0
   -7.1230   -3.5860  -14.8160 N   0  0  0  0  0  0  0  0  0  0  0  0
   -3.2030   -2.2860  -15.8660 C   0  0  0  0  0  0  0  0  0  0  0  0
   -5.3110   -0.5640  -19.9810 C   0  0  0  0  0  0  0  0  0  0  0  0
   -6.2080   -1.8460  -17.6550 C   0  0  0  0  0  0  0  0  0  0  0  0
   -1.0110   -1.1840  -16.1100 C   0  0  0  0  0  0  0  0  0  0  0  0
   -6.8150   -2.5290  -16.5950 C   0  0  0  0  0  0  0  0  0  0  0  0
   -8.3150   -3.4890  -15.4070 N   0  0  0  0  0  0  0  0  0  0  0  0
   -7.0700   -1.4430  -18.7200 N   0  0  0  0  0  0  0  0  0  0  0  0
   -1.9390   -1.9940  -15.3790 C   0  0  0  0  0  0  0  0  0  0  0  0
  1 15  1  0
  2 12  1  0
  3  1  2  0
  3  2  1  0
  4 17  1  0
  5 14  1  0
  5  2  2  0
  6 11  1  0
  7 18  1  0
  8 10  2  0
  8  5  1  0
  9  4  1  0
 10  3  1  0
 12 19  2  0
 13  7  2  0
 13  8  1  0
 14 16  1  0
 15 19  1  0
 16  4  1  0
 16  6  2  0
 17 11  2  0
 18 14  2  0
M  END
$$$$

     RDKit          3D

 19 22  0  0  0  0  0  0  0  0999 V2000
   -1.2120   -0.7530  -16.8270 C   0  0  0  0  0  0  0  0  0  0  0  0
   -3.4710   -1.8610  -16.9060 C   0  0  0  0  0  0  0  0  0  0  0  0
   -2.3800   -1.0800  -17.5450 C   0  0  0  0  0  0  0  0  0  0  0  0
   -7.9540   -3.1160  -16.3390 C   0  0  0  0  0  0  0  0  0  0  0  0
   -4.6690   -1.6350  -17.7620 C   0  0  2  0  0  0  0  0  0  0  0  0
   -5.8830   -3.1190  -15.4790 N   0  0  0  0  0  0  0  0  0  0  0  0
   -6.4540   -0.8090  -19.8030 C   0  0  0  0  0  0  0  0  0  0  0  0
   -4.1820   -0.8640  -19.0170 C   0  0  0  0  0  0  0  0  0  0  0  0
   -9.1210   -2.8930  -17.2000 C   0  0  0  0  0  0  0  0  0  0  0  0
   -2.8240   -0.6020  -18.7800 N   0  0  0  0  0  0  0  0  0  0  0  0
   -6.6690   -3.8360  -14.6850 O   0  0  0  0  0  0  0  0  0  0  0  0
   -3.1530   -2.6080  -15.7420 C   0  0  0  0  0  0  0  0  0  0  0  0
   -5.0630   -0.5780  -19.9280 N   0  0  0  0  0  0  0  0  0  0  0  0
   -6.1350   -1.8990  -17.6220 C   0  0  0  0  0  0  0  0  0  0  0  0
   -0.9030   -1.6240  -15.7420 C   0  0  0  0  0  0  0  0  0  0  0  0
   -6.6160   -2.6280  -16.5620 C   0  0  0  0  0  0  0  0  0  0  0  0
   -7.9260   -3.8030  -15.2030 N   0  0  0  0  0  0  0  0  0  0  0  0
   -6.9570   -1.4890  -18.7100 C   0  0  0  0  0  0  0  0  0  0  0  0
   -1.8790   -2.5030  -15.2170 C   0  0  0  0  0  0  0  0  0  0  0  0
  1 15  2  0
  2 12  1  0
  3  2  2  0
  3  1  1  0
  4 17  2  0
  5  8  1  0
  5 14  1  1
  5  2  1  0
  6 11  1  0
  7 18  1  0
  8 10  2  0
  9  4  1  0
 10  3  1  0
 12 19  2  0
 13  7  2  0
 13  8  1  0
 14 16  1  0
 15 19  1  0
 16  4  1  0
 16  6  2  0
 17 11  1  0
 18 14  2  0
M  END
$$$$

     RDKit          3D

 19 22  0  0  0  0  0  0  0  0999 V2000
   -1.2730   -1.0750  -16.7190 C   0  0  0  0  0  0  0  0  0  0  0  0
   -3.6850   -1.8340  -16.7590 C   0  0  0  0  0  0  0  0  0  0  0  0
   -2.5360   -1.2480  -17.3680 C   0  0  0  0  0  0  0  0  0  0  0  0
   -8.2360   -3.1690  -16.4990 C   0  0  0  0  0  0  0  0  0  0  0  0
   -4.8230   -1.6040  -17.6690 C   0  0  0  0  0  0  0  0  0  0  0  0
   -6.3050   -3.2620  -15.4110 C   0  0  0  0  0  0  0  0  0  0  0  0
   -6.4770   -0.9850  -19.8790 C   0  0  0  0  0  0  0  0  0  0  0  0
   -4.2460   -1.0250  -18.8570 C   0  0  0  0  0  0  0  0  0  0  0  0
   -9.4270   -3.1350  -17.1670 O   0  0  0  0  0  0  0  0  0  0  0  0
   -2.9530   -0.8450  -18.5940 N   0  0  0  0  0  0  0  0  0  0  0  0
   -7.1400   -3.9310  -14.7190 N   0  0  0  0  0  0  0  0  0  0  0  0
   -3.4050   -2.4380  -15.4960 C   0  0  0  0  0  0  0  0  0  0  0  0
   -5.1240   -0.6770  -19.9450 C   0  0  0  0  0  0  0  0  0  0  0  0
   -6.2510   -1.9540  -17.6870 C   0  0  0  0  0  0  0  0  0  0  0  0
   -1.1260   -1.6670  -15.5310 C   0  0  0  0  0  0  0  0  0  0  0  0
   -6.8510   -2.6560  -16.6240 C   0  0  1  0  0  0  0  0  0  0  0  0
   -8.3370   -3.8860  -15.3520 N   0  0  0  0  0  0  0  0  0  0  0  0
   -7.0490   -1.6050  -18.7770 C   0  0  0  0  0  0  0  0  0  0  0  0
   -2.1950   -2.3460  -14.8330 C   0  0  0  0  0  0  0  0  0  0  0  0
  1 15  1  0
  2 12  1  0
  3  2  1  0
  3  1  2  0
  4 17  1  0
  5  2  2  0
  6 11  2  0
  7 18  1  0
  8 10  2  0
  8  5  1  0
  9  4  2  0
 10  3  1  0
 12 19  2  0
 13  7  2  0
 13  8  1  0
 14  5  1  0
 15 19  1  0
 16 14  1  6
 16  4  1  0
 16  6  1  0
 17 11  1  0
 18 14  2  0
M  END
$$$$

     RDKit          3D

 19 22  0  0  0  0  0  0  0  0999 V2000
   -1.3580   -0.3780  -17.1520 C   0  0  0  0  0  0  0  0  0  0  0  0
   -3.5340   -1.5480  -17.0190 C   0  0  0  0  0  0  0  0  0  0  0  0
   -2.5380   -0.7620  -17.7100 C   0  0  0  0  0  0  0  0  0  0  0  0
   -8.1770   -2.7200  -16.3300 N   0  0  0  0  0  0  0  0  0  0  0  0
   -4.7910   -1.5000  -17.8560 C   0  0  0  0  0  0  0  0  0  0  0  0
   -6.1650   -3.0710  -15.6280 N   0  0  0  0  0  0  0  0  0  0  0  0
   -6.4880   -0.7520  -19.6940 C   0  0  0  0  0  0  0  0  0  0  0  0
   -4.3190   -0.7960  -19.1220 C   0  0  0  0  0  0  0  0  0  0  0  0
   -9.3200   -2.3660  -17.0840 C   0  0  0  0  0  0  0  0  0  0  0  0
   -3.0260   -0.4240  -19.0190 N   0  0  0  0  0  0  0  0  0  0  0  0
   -6.9770   -3.5520  -14.7130 N   0  0  0  0  0  0  0  0  0  0  0  0
   -3.1300   -2.2590  -15.7840 C   0  0  0  0  0  0  0  0  0  0  0  0
   -5.2670   -0.6030  -20.1430 N   0  0  0  0  0  0  0  0  0  0  0  0
   -6.1950   -1.8210  -17.7230 C   0  0  0  0  0  0  0  0  0  0  0  0
   -0.9590   -1.0300  -15.9070 C   0  0  0  0  0  0  0  0  0  0  0  0
   -6.8280   -2.4800  -16.6090 C   0  0  0  0  0  0  0  0  0  0  0  0
   -8.2320   -3.3220  -15.0900 N   0  0  0  0  0  0  0  0  0  0  0  0
   -7.0350   -1.4700  -18.7970 N   0  0  0  0  0  0  0  0  0  0  0  0
   -1.8900   -1.9880  -15.2680 C   0  0  0  0  0  0  0  0  0  0  0  0
  1 15  2  0
  2 12  1  0
  3  1  1  0
  3  2  2  0
  4 17  1  0
  5 14  2  0
  5  2  1  0
  6 11  1  0
  7 18  1  0
  8 10  2  0
  8  5  1  0
  9  4  1  0
 10  3  1  0
 12 19  2  0
 13  7  1  0
 13  8  1  0
 14 16  1  0
 15 19  1  0
 16  4  1  0
 16  6  2  0
 17 11  2  0
 18 14  1  0
M  END
$$$$

     RDKit          3D

 19 22  0  0  0  0  0  0  0  0999 V2000
   -1.3050   -1.2910  -17.1010 C   0  0  0  0  0  0  0  0  0  0  0  0
   -3.6830   -1.9700  -16.9090 C   0  0  0  0  0  0  0  0  0  0  0  0
   -2.6200   -1.2990  -17.5980 C   0  0  0  0  0  0  0  0  0  0  0  0
   -8.1590   -3.2650  -16.2170 C   0  0  0  0  0  0  0  0  0  0  0  0
   -4.8770   -1.6980  -17.7310 C   0  0  0  0  0  0  0  0  0  0  0  0
   -6.0890   -3.1240  -15.5250 O   0  0  0  0  0  0  0  0  0  0  0  0
   -6.6100   -0.8880  -19.8300 C   0  0  0  0  0  0  0  0  0  0  0  0
   -4.4170   -1.0180  -18.8670 C   0  0  0  0  0  0  0  0  0  0  0  0
   -9.4120   -2.9570  -17.0170 C   0  0  0  0  0  0  0  0  0  0  0  0
   -3.0700   -0.7740  -18.7890 N   0  0  0  0  0  0  0  0  0  0  0  0
   -6.7530   -3.9880  -14.7860 N   0  0  0  0  0  0  0  0  0  0  0  0
   -3.4220   -2.6210  -15.7720 C   0  0  0  0  0  0  0  0  0  0  0  0
   -5.2710   -0.5710  -19.9170 C   0  0  0  0  0  0  0  0  0  0  0  0
   -6.2540   -2.0420  -17.6660 C   0  0  0  0  0  0  0  0  0  0  0  0
   -1.0420   -1.9580  -15.8530 C   0  0  0  0  0  0  0  0  0  0  0  0
   -6.8380   -2.7220  -16.4920 C   0  0  0  0  0  0  0  0  0  0  0  0
   -8.0770   -4.0930  -15.1770 N   0  0  0  0  0  0  0  0  0  0  0  0
   -7.1200   -1.6120  -18.6530 C   0  0  0  0  0  0  0  0  0  0  0  0
   -2.0880   -2.6250  -15.1960 C   0  0  0  0  0  0  0  0  0  0  0  0
  1 15  1  0
  2 12  1  0
  3  1  2  0
  3  2  1  0
  4 17  1  0
  5 14  1  0
  5  2  2  0
  6 11  1  0
  7 18  1  0
  8 10  2  0
  8  5  1  0
  9  4  1  0
 10  3  1  0
 12 19  2  0
 13  7  2  0
 13  8  1  0
 14 16  1  0
 15 19  1  0
 16  4  2  0
 16  6  1  0
 17 11  2  0
 18 14  2  0
M  END
$$$$

     RDKit          3D

 19 22  0  0  0  0  0  0  0  0999 V2000
   -1.2640   -1.1490  -17.0430 C   0  0  0  0  0  0  0  0  0  0  0  0
   -3.6370   -1.7210  -16.9850 C   0  0  0  0  0  0  0  0  0  0  0  0
   -2.5170   -1.1750  -17.5740 C   0  0  0  0  0  0  0  0  0  0  0  0
   -8.1540   -2.8350  -16.5290 C   0  0  0  0  0  0  0  0  0  0  0  0
   -4.7920   -1.4800  -17.8750 C   0  0  0  0  0  0  0  0  0  0  0  0
   -5.9750   -2.7640  -15.6950 N   0  0  0  0  0  0  0  0  0  0  0  0
   -6.4850   -0.9140  -20.0820 C   0  0  0  0  0  0  0  0  0  0  0  0
   -4.3030   -0.8730  -18.9430 C   0  0  0  0  0  0  0  0  0  0  0  0
   -9.3500   -2.6610  -17.4280 C   0  0  0  0  0  0  0  0  0  0  0  0
   -2.9300   -0.7020  -18.8220 N   0  0  0  0  0  0  0  0  0  0  0  0
   -6.9650   -3.3820  -14.8890 O   0  0  0  0  0  0  0  0  0  0  0  0
   -3.3540   -2.4370  -15.7170 C   0  0  0  0  0  0  0  0  0  0  0  0
   -5.1840   -0.5730  -20.0110 C   0  0  0  0  0  0  0  0  0  0  0  0
   -6.0820   -1.8090  -17.7740 C   0  0  0  0  0  0  0  0  0  0  0  0
   -1.0350   -1.7770  -15.8460 C   0  0  0  0  0  0  0  0  0  0  0  0
   -6.8550   -2.4240  -16.6980 C   0  0  0  0  0  0  0  0  0  0  0  0
   -8.0370   -3.3490  -15.4490 N   0  0  0  0  0  0  0  0  0  0  0  0
   -6.9680   -1.5010  -18.9270 C   0  0  0  0  0  0  0  0  0  0  0  0
   -2.0720   -2.4080  -15.1880 C   0  0  0  0  0  0  0  0  0  0  0  0
  1 15  1  0
  2 12  1  0
  3  1  2  0
  3  2  1  0
  4 17  2  0
  5 14  1  0
  5  2  2  0
  6 11  1  0
  7 13  2  0
  7 18  1  0
  8 10  2  0
  8  5  1  0
  9  4  1  0
 10  3  1  0
 12 19  2  0
 13  8  1  0
 14 16  1  0
 15 19  1  0
 16  4  1  0
 16  6  2  0
 17 11  1  0
 18 14  2  0
M  END
$$$$

     RDKit          3D

 19 22  0  0  0  0  0  0  0  0999 V2000
   -1.4230   -1.3160  -17.2920 C   0  0  0  0  0  0  0  0  0  0  0  0
   -3.7260   -1.8390  -17.1440 C   0  0  0  0  0  0  0  0  0  0  0  0
   -2.6370   -1.3340  -17.8080 C   0  0  0  0  0  0  0  0  0  0  0  0
   -8.1180   -2.8880  -16.4970 C   0  0  0  0  0  0  0  0  0  0  0  0
   -4.8520   -1.6800  -17.9870 C   0  0  0  0  0  0  0  0  0  0  0  0
   -6.0570   -2.8920  -15.6140 N   0  0  0  0  0  0  0  0  0  0  0  0
   -6.6450   -0.8420  -20.0590 C   0  0  0  0  0  0  0  0  0  0  0  0
   -4.4460   -1.0420  -19.1350 C   0  0  0  0  0  0  0  0  0  0  0  0
   -9.0970   -2.6670  -17.1590 O   0  0  0  0  0  0  0  0  0  0  0  0
   -3.0940   -0.9780  -18.9650 N   0  0  0  0  0  0  0  0  0  0  0  0
   -6.8470   -3.5720  -14.7350 C   0  0  0  0  0  0  0  0  0  0  0  0
   -3.5040   -2.3090  -15.7940 C   0  0  0  0  0  0  0  0  0  0  0  0
   -5.2100   -0.6660  -20.1170 C   0  0  0  0  0  0  0  0  0  0  0  0
   -6.2460   -1.8430  -17.9120 C   0  0  0  0  0  0  0  0  0  0  0  0
   -1.2220   -1.6930  -16.0030 C   0  0  0  0  0  0  0  0  0  0  0  0
   -6.7770   -2.5320  -16.7230 C   0  0  0  0  0  0  0  0  0  0  0  0
   -8.1150   -3.5350  -15.3230 N   0  0  0  0  0  0  0  0  0  0  0  0
   -7.0760   -1.4480  -18.8680 C   0  0  0  0  0  0  0  0  0  0  0  0
   -2.2040   -2.2000  -15.2280 C   0  0  0  0  0  0  0  0  0  0  0  0
  1 15  1  0
  2 12  1  0
  3  1  2  0
  3  2  1  0
  4 17  1  0
  5 14  1  0
  5  2  2  0
  6 11  2  0
  7 18  1  0
  8 10  2  0
  8  5  1  0
  9  4  2  0
 10  3  1  0
 12 19  2  0
 13  7  2  0
 13  8  1  0
 15 19  1  0
 16 14  1  0
 16  4  1  0
 16  6  1  0
 17 11  1  0
 18 14  2  0
M  END
$$$$

     RDKit          3D

 19 22  0  0  0  0  0  0  0  0999 V2000
   -1.2330   -0.9160  -17.0130 C   0  0  0  0  0  0  0  0  0  0  0  0
   -3.4920   -1.8560  -17.0420 C   0  0  0  0  0  0  0  0  0  0  0  0
   -2.5050   -1.1200  -17.6370 C   0  0  0  0  0  0  0  0  0  0  0  0
   -8.2060   -2.8750  -16.5430 C   0  0  0  0  0  0  0  0  0  0  0  0
   -4.8170   -1.6410  -17.8600 C   0  0  1  0  0  0  0  0  0  0  0  0
   -6.0610   -3.0810  -15.6860 N   0  0  0  0  0  0  0  0  0  0  0  0
   -6.4090   -0.9530  -19.9280 C   0  0  0  0  0  0  0  0  0  0  0  0
   -4.3210   -1.0120  -18.9570 C   0  0  0  0  0  0  0  0  0  0  0  0
   -9.3740   -2.7040  -17.4650 C   0  0  0  0  0  0  0  0  0  0  0  0
   -3.0440   -0.6540  -18.8110 N   0  0  0  0  0  0  0  0  0  0  0  0
   -6.9670   -3.7010  -14.8700 C   0  0  0  0  0  0  0  0  0  0  0  0
   -3.1760   -2.5210  -15.9030 C   0  0  0  0  0  0  0  0  0  0  0  0
   -5.1100   -0.6810  -19.9650 N   0  0  0  0  0  0  0  0  0  0  0  0
   -6.1920   -1.9210  -17.8310 C   0  0  0  0  0  0  0  0  0  0  0  0
   -0.9070   -1.6240  -15.9220 C   0  0  0  0  0  0  0  0  0  0  0  0
   -6.8350   -2.6030  -16.7390 N   0  0  0  0  0  0  0  0  0  0  0  0
   -8.2890   -3.5060  -15.3200 N   0  0  0  0  0  0  0  0  0  0  0  0
   -6.9630   -1.4730  -18.8350 C   0  0  0  0  0  0  0  0  0  0  0  0
   -1.8530   -2.4740  -15.3590 C   0  0  0  0  0  0  0  0  0  0  0  0
  1 15  2  0
  2 12  1  0
  3  2  2  0
  3  1  1  0
  4 17  2  0
  5  8  1  0
  5 14  1  6
  5  2  1  0
  6 11  2  0
  7 18  1  0
  8 10  2  0
  9  4  1  0
 10  3  1  0
 12 19  2  0
 13  7  2  0
 13  8  1  0
 14 16  1  0
 15 19  1  0
 16  4  1  0
 16  6  1  0
 17 11  1  0
 18 14  2  0
M  END
$$$$

     RDKit          3D

 19 22  0  0  0  0  0  0  0  0999 V2000
   -1.1520   -1.3570  -16.9200 N   0  0  0  0  0  0  0  0  0  0  0  0
   -3.5740   -1.9260  -16.7950 C   0  0  1  0  0  0  0  0  0  0  0  0
   -2.3940   -1.3780  -17.4420 C   0  0  0  0  0  0  0  0  0  0  0  0
   -8.2340   -3.1580  -16.4800 C   0  0  0  0  0  0  0  0  0  0  0  0
   -4.7490   -1.7670  -17.6970 C   0  0  0  0  0  0  0  0  0  0  0  0
   -6.2820   -3.1040  -15.2580 C   0  0  0  0  0  0  0  0  0  0  0  0
   -6.5660   -1.1280  -19.8180 C   0  0  0  0  0  0  0  0  0  0  0  0
   -4.2940   -1.0460  -18.9200 C   0  0  0  0  0  0  0  0  0  0  0  0
   -9.1570   -2.9110  -17.3930 O   0  0  0  0  0  0  0  0  0  0  0  0
   -2.8610   -0.8160  -18.6390 N   0  0  0  0  0  0  0  0  0  0  0  0
   -7.2340   -3.8790  -14.6220 C   0  0  0  0  0  0  0  0  0  0  0  0
   -3.3170   -2.5470  -15.5090 C   0  0  0  0  0  0  0  0  0  0  0  0
   -5.1760   -0.7010  -19.9590 C   0  0  0  0  0  0  0  0  0  0  0  0
   -6.1790   -2.0590  -17.6020 C   0  0  0  0  0  0  0  0  0  0  0  0
   -0.9700   -1.8710  -15.5500 C   0  0  0  0  0  0  0  0  0  0  0  0
   -6.8350   -2.6860  -16.5360 C   0  0  1  0  0  0  0  0  0  0  0  0
   -8.4250   -3.8430  -15.3450 N   0  0  0  0  0  0  0  0  0  0  0  0
   -7.0080   -1.6540  -18.6890 N   0  0  0  0  0  0  0  0  0  0  0  0
   -2.0600   -2.5510  -14.9120 C   0  0  0  0  0  0  0  0  0  0  0  0
  1 15  1  0
  2 12  1  6
  3  1  2  0
  3  2  1  0
  4 17  1  0
  5 14  1  0
  5  2  1  0
  6 11  2  0
  7 18  1  0
  8 10  1  0
  8  5  2  0
  9  4  2  0
 10  3  1  0
 12 19  2  0
 13  7  2  0
 13  8  1  0
 15 19  1  0
 16 14  1  6
 16  4  1  0
 16  6  1  0
 17 11  1  0
 18 14  2  0
M  END
$$$$

     RDKit          3D

 19 22  0  0  0  0  0  0  0  0999 V2000
   -1.4740   -1.3140  -17.2020 C   0  0  0  0  0  0  0  0  0  0  0  0
   -3.8060   -2.0270  -17.0020 C   0  0  0  0  0  0  0  0  0  0  0  0
   -2.6720   -1.6460  -17.7370 N   0  0  0  0  0  0  0  0  0  0  0  0
   -8.5660   -3.0960  -16.4280 N   0  0  0  0  0  0  0  0  0  0  0  0
   -5.0160   -1.8360  -17.7480 C   0  0  0  0  0  0  0  0  0  0  0  0
   -6.6770   -3.3110  -15.3330 C   0  0  0  0  0  0  0  0  0  0  0  0
   -6.7510   -0.9990  -19.6950 C   0  0  0  0  0  0  0  0  0  0  0  0
   -4.6140   -1.1680  -18.9340 C   0  0  0  0  0  0  0  0  0  0  0  0
   -9.6400   -2.9080  -17.4260 C   0  0  0  0  0  0  0  0  0  0  0  0
   -3.1680   -1.0920  -18.8920 N   0  0  0  0  0  0  0  0  0  0  0  0
   -7.7260   -3.8090  -14.4470 N   0  0  0  0  0  0  0  0  0  0  0  0
   -3.4600   -2.6880  -15.8930 C   0  0  0  0  0  0  0  0  0  0  0  0
   -5.4470   -0.7600  -19.9090 N   0  0  0  0  0  0  0  0  0  0  0  0
   -6.4410   -2.1040  -17.6320 C   0  0  0  0  0  0  0  0  0  0  0  0
   -1.2210   -1.8380  -15.8790 C   0  0  0  0  0  0  0  0  0  0  0  0
   -7.1530   -2.8440  -16.5110 C   0  0  0  0  0  0  0  0  0  0  0  0
   -8.8800   -3.6520  -15.3190 C   0  0  0  0  0  0  0  0  0  0  0  0
   -7.2130   -1.5630  -18.6480 N   0  0  0  0  0  0  0  0  0  0  0  0
   -2.2120   -2.5400  -15.2860 C   0  0  0  0  0  0  0  0  0  0  0  0
  1 15  1  0
  2 12  2  0
  3  1  1  0
  3  2  1  0
  4 17  1  0
  5 14  2  0
  5  2  1  0
  6 11  1  0
  7 18  2  0
  8 10  2  0
  8  5  1  0
  9  4  1  0
 10  3  1  0
 12 19  1  0
 13  7  1  0
 13  8  1  0
 14 16  1  0
 15 19  2  0
 16  4  1  0
 16  6  2  0
 17 11  2  0
 18 14  1  0
M  END
$$$$

     RDKit          3D

 19 22  0  0  0  0  0  0  0  0999 V2000
   -1.5020   -1.1300  -17.0090 C   0  0  0  0  0  0  0  0  0  0  0  0
   -3.8260   -2.0040  -16.9650 C   0  0  0  0  0  0  0  0  0  0  0  0
   -2.7980   -1.2090  -17.6320 C   0  0  0  0  0  0  0  0  0  0  0  0
   -8.4140   -3.2050  -16.5840 C   0  0  2  0  0  0  0  0  0  0  0  0
   -5.0570   -1.8200  -17.8440 C   0  0  0  0  0  0  0  0  0  0  0  0
   -6.7080   -3.0950  -15.3200 C   0  0  0  0  0  0  0  0  0  0  0  0
   -6.8310   -1.1030  -19.8390 C   0  0  0  0  0  0  0  0  0  0  0  0
   -4.6400   -1.0610  -18.9130 C   0  0  0  0  0  0  0  0  0  0  0  0
   -9.2820   -3.5370  -17.7670 C   0  0  0  0  0  0  0  0  0  0  0  0
   -3.3110   -0.7160  -18.8010 N   0  0  0  0  0  0  0  0  0  0  0  0
   -7.5730   -3.7210  -14.5470 C   0  0  0  0  0  0  0  0  0  0  0  0
   -3.5200   -2.7090  -15.8550 C   0  0  0  0  0  0  0  0  0  0  0  0
   -5.5650   -0.7310  -19.9280 C   0  0  0  0  0  0  0  0  0  0  0  0
   -6.4080   -2.1330  -17.7730 C   0  0  0  0  0  0  0  0  0  0  0  0
   -1.2520   -1.8640  -15.9140 C   0  0  0  0  0  0  0  0  0  0  0  0
   -7.1130   -2.7480  -16.5660 C   0  0  0  0  0  0  0  0  0  0  0  0
   -8.7990   -3.5980  -15.3690 O   0  0  0  0  0  0  0  0  0  0  0  0
   -7.2610   -1.7060  -18.7700 N   0  0  0  0  0  0  0  0  0  0  0  0
   -2.2170   -2.6250  -15.3430 C   0  0  0  0  0  0  0  0  0  0  0  0
  1 15  1  0
  2 12  1  0
  3  1  2  0
  3  2  1  0
  4  9  1  6
  4 16  1  0
  4 17  1  0
  5 14  1  0
  5  2  2  0
  6 11  1  0
  7 18  1  0
  8 10  2  0
  8  5  1  0
 10  3  1  0
 12 19  2  0
 13  7  2  0
 13  8  1  0
 14 16  1  0
 15 19  1  0
 16  6  2  0
 17 11  1  0
 18 14  2  0
M  END
$$$$

     RDKit          3D

 19 22  0  0  0  0  0  0  0  0999 V2000
   -1.2860   -0.6260  -17.1640 C   0  0  0  0  0  0  0  0  0  0  0  0
   -3.4940   -1.6630  -17.0400 C   0  0  0  0  0  0  0  0  0  0  0  0
   -2.4930   -1.0190  -17.8010 C   0  0  0  0  0  0  0  0  0  0  0  0
   -8.0000   -3.2180  -16.3810 N   0  0  0  0  0  0  0  0  0  0  0  0
   -4.7180   -1.5400  -17.8280 C   0  0  0  0  0  0  0  0  0  0  0  0
   -6.0520   -3.0370  -15.4840 C   0  0  0  0  0  0  0  0  0  0  0  0
   -6.4560   -0.8450  -19.8750 N   0  0  0  0  0  0  0  0  0  0  0  0
   -4.3030   -0.9600  -19.0220 C   0  0  0  0  0  0  0  0  0  0  0  0
   -9.1570   -3.2140  -17.2200 C   0  0  0  0  0  0  0  0  0  0  0  0
   -2.9250   -0.7210  -19.0380 N   0  0  0  0  0  0  0  0  0  0  0  0
   -6.9120   -3.6740  -14.5980 N   0  0  0  0  0  0  0  0  0  0  0  0
   -3.2140   -2.2310  -15.7870 C   0  0  0  0  0  0  0  0  0  0  0  0
   -5.1760   -0.6350  -20.0070 C   0  0  0  0  0  0  0  0  0  0  0  0
   -6.1440   -1.9290  -17.6940 C   0  0  0  0  0  0  0  0  0  0  0  0
   -0.9670   -1.2150  -15.9830 C   0  0  0  0  0  0  0  0  0  0  0  0
   -6.8020   -2.6080  -16.6260 C   0  0  1  0  0  0  0  0  0  0  0  0
   -8.1240   -3.7000  -15.1970 N   0  0  0  0  0  0  0  0  0  0  0  0
   -6.9960   -1.4480  -18.7560 C   0  0  0  0  0  0  0  0  0  0  0  0
   -1.8870   -1.9690  -15.2740 C   0  0  0  0  0  0  0  0  0  0  0  0
  1 15  1  0
  2 12  1  0
  3  1  2  0
  3  2  1  0
  4 17  1  0
  5 14  1  0
  5  2  2  0
  6 11  1  0
  7 18  1  0
  8  5  1  0
  9  4  1  0
 10  8  2  0
 10  3  1  0
 12 19  2  0
 13  7  2  0
 13  8  1  0
 15 19  1  0
 16 14  1  6
 16  4  1  0
 16  6  1  0
 17 11  1  0
 18 14  2  0
M  END
$$$$

     RDKit          3D

 19 22  0  0  0  0  0  0  0  0999 V2000
   -1.6590   -1.3670  -17.1040 C   0  0  0  0  0  0  0  0  0  0  0  0
   -3.9690   -1.9790  -17.0430 C   0  0  0  0  0  0  0  0  0  0  0  0
   -2.9350   -1.3930  -17.6340 C   0  0  0  0  0  0  0  0  0  0  0  0
   -8.4810   -3.1660  -16.7250 C   0  0  0  0  0  0  0  0  0  0  0  0
   -5.0920   -1.7850  -17.7910 C   0  0  0  0  0  0  0  0  0  0  0  0
   -6.6440   -3.2300  -15.5390 C   0  0  0  0  0  0  0  0  0  0  0  0
   -6.6880   -0.9430  -19.8560 C   0  0  0  0  0  0  0  0  0  0  0  0
   -4.6370   -1.0690  -18.9110 C   0  0  0  0  0  0  0  0  0  0  0  0
   -9.4910   -3.1450  -17.6390 N   0  0  0  0  0  0  0  0  0  0  0  0
   -3.3480   -0.8420  -18.8190 N   0  0  0  0  0  0  0  0  0  0  0  0
   -7.6300   -3.7220  -14.7570 N   0  0  0  0  0  0  0  0  0  0  0  0
   -3.7410   -2.6390  -15.8530 C   0  0  0  0  0  0  0  0  0  0  0  0
   -5.4040   -0.6370  -19.9080 C   0  0  0  0  0  0  0  0  0  0  0  0
   -6.4690   -2.0540  -17.7450 C   0  0  0  0  0  0  0  0  0  0  0  0
   -1.3790   -2.0680  -15.9300 C   0  0  0  0  0  0  0  0  0  0  0  0
   -7.2250   -2.7380  -16.6990 C   0  0  0  0  0  0  0  0  0  0  0  0
   -8.7440   -3.7290  -15.5330 O   0  0  0  0  0  0  0  0  0  0  0  0
   -7.2480   -1.5200  -18.7470 C   0  0  0  0  0  0  0  0  0  0  0  0
   -2.4950   -2.6900  -15.3040 C   0  0  0  0  0  0  0  0  0  0  0  0
  1 15  1  0
  2 12  1  0
  3  1  2  0
  3  2  1  0
  4 16  2  0
  4 17  1  0
  5 14  1  0
  5  2  2  0
  6 11  1  0
  7 18  1  0
  8 10  2  0
  8  5  1  0
  9  4  1  0
 10  3  1  0
 12 19  2  0
 13  7  2  0
 13  8  1  0
 14 16  1  0
 15 19  1  0
 16  6  1  0
 17 11  1  0
 18 14  2  0
M  END
$$$$

     RDKit          3D

 19 22  0  0  0  0  0  0  0  0999 V2000
   -1.4830   -1.4610  -16.9110 C   0  0  0  0  0  0  0  0  0  0  0  0
   -3.9700   -2.0210  -16.8730 C   0  0  0  0  0  0  0  0  0  0  0  0
   -2.7720   -1.5110  -17.6190 C   0  0  0  0  0  0  0  0  0  0  0  0
   -8.4920   -3.1970  -16.3780 C   0  0  0  0  0  0  0  0  0  0  0  0
   -5.0390   -1.8110  -17.7490 C   0  0  0  0  0  0  0  0  0  0  0  0
   -6.4080   -3.1260  -15.2930 C   0  0  0  0  0  0  0  0  0  0  0  0
   -6.7620   -0.9580  -19.7480 C   0  0  0  0  0  0  0  0  0  0  0  0
   -4.6180   -0.9790  -18.9120 C   0  0  0  0  0  0  0  0  0  0  0  0
   -9.4180   -3.2390  -17.3950 N   0  0  0  0  0  0  0  0  0  0  0  0
   -3.2290   -0.7880  -18.8170 N   0  0  0  0  0  0  0  0  0  0  0  0
   -7.4920   -3.6030  -14.4790 N   0  0  0  0  0  0  0  0  0  0  0  0
   -3.7190   -2.5210  -15.5290 C   0  0  0  0  0  0  0  0  0  0  0  0
   -5.5110   -0.5490  -19.8900 N   0  0  0  0  0  0  0  0  0  0  0  0
   -6.4230   -2.1130  -17.6320 C   0  0  0  0  0  0  0  0  0  0  0  0
   -1.3980   -2.0700  -15.5750 C   0  0  0  0  0  0  0  0  0  0  0  0
   -7.0280   -2.6560  -16.5360 C   0  0  0  0  0  0  0  0  0  0  0  0
   -8.7160   -3.5860  -15.1190 N   0  0  0  0  0  0  0  0  0  0  0  0
   -7.3060   -1.7840  -18.7460 C   0  0  0  0  0  0  0  0  0  0  0  0
   -2.4630   -2.5480  -14.9440 N   0  0  0  0  0  0  0  0  0  0  0  0
  1 15  2  0
  2 12  1  0
  3  1  1  0
  3  2  2  0
  4 17  1  0
  5 14  2  0
  5  2  1  0
  6 11  1  0
  7 18  1  0
  8 10  2  0
  8  5  1  0
  9  4  1  0
 10  3  1  0
 12 19  2  0
 13  7  2  0
 13  8  1  0
 14 16  1  0
 15 19  1  0
 16  4  2  0
 16  6  1  0
 17 11  1  0
 18 14  1  0
M  END
$$$$

     RDKit          3D

 19 22  0  0  0  0  0  0  0  0999 V2000
   -1.2540   -0.6540  -17.0270 C   0  0  0  0  0  0  0  0  0  0  0  0
   -3.4600   -1.6660  -16.9750 C   0  0  0  0  0  0  0  0  0  0  0  0
   -2.4790   -0.9260  -17.6060 C   0  0  0  0  0  0  0  0  0  0  0  0
   -7.9780   -2.7660  -16.3390 C   0  0  0  0  0  0  0  0  0  0  0  0
   -4.6120   -1.5430  -17.8270 C   0  0  2  0  0  0  0  0  0  0  0  0
   -5.9690   -3.0290  -15.5150 N   0  0  0  0  0  0  0  0  0  0  0  0
   -6.2440   -1.0060  -19.8900 C   0  0  0  0  0  0  0  0  0  0  0  0
   -4.1790   -0.8070  -18.9790 C   0  0  0  0  0  0  0  0  0  0  0  0
   -9.0600   -2.3800  -17.1690 C   0  0  0  0  0  0  0  0  0  0  0  0
   -2.9430   -0.5140  -18.7770 N   0  0  0  0  0  0  0  0  0  0  0  0
   -6.8640   -3.5920  -14.7410 O   0  0  0  0  0  0  0  0  0  0  0  0
   -3.1920   -2.3230  -15.7820 C   0  0  0  0  0  0  0  0  0  0  0  0
   -5.0130   -0.5850  -19.9860 N   0  0  0  0  0  0  0  0  0  0  0  0
   -6.0090   -1.8640  -17.7350 C   0  0  0  0  0  0  0  0  0  0  0  0
   -0.9680   -1.3010  -15.8290 C   0  0  0  0  0  0  0  0  0  0  0  0
   -6.6150   -2.5130  -16.6120 C   0  0  0  0  0  0  0  0  0  0  0  0
   -8.0610   -3.4050  -15.2160 N   0  0  0  0  0  0  0  0  0  0  0  0
   -6.7000   -1.6160  -18.8040 N   0  0  0  0  0  0  0  0  0  0  0  0
   -1.9260   -2.1600  -15.2650 C   0  0  0  0  0  0  0  0  0  0  0  0
  1 15  2  0
  2 12  1  0
  3  1  1  0
  3  2  2  0
  4 17  2  0
  5  8  1  0
  5 14  1  1
  5  2  1  0
  6 11  1  0
  7 18  1  0
  8 10  2  0
  9  4  1  0
 10  3  1  0
 12 19  2  0
 13  7  2  0
 13  8  1  0
 14 16  1  0
 15 19  1  0
 16  4  1  0
 16  6  2  0
 17 11  1  0
 18 14  2  0
M  END
$$$$

     RDKit          3D

 19 22  0  0  0  0  0  0  0  0999 V2000
   -1.4840   -0.9100  -16.8180 C   0  0  0  0  0  0  0  0  0  0  0  0
   -3.7920   -1.7580  -16.9630 C   0  0  0  0  0  0  0  0  0  0  0  0
   -2.6630   -1.1400  -17.5180 C   0  0  0  0  0  0  0  0  0  0  0  0
   -8.2980   -2.8980  -16.4760 N   0  0  0  0  0  0  0  0  0  0  0  0
   -4.9170   -1.5570  -17.8790 C   0  0  0  0  0  0  0  0  0  0  0  0
   -6.4620   -2.9360  -15.5170 N   0  0  0  0  0  0  0  0  0  0  0  0
   -6.5740   -0.8960  -19.9740 C   0  0  0  0  0  0  0  0  0  0  0  0
   -4.3690   -0.9160  -19.0040 C   0  0  0  0  0  0  0  0  0  0  0  0
   -9.4900   -2.8230  -17.3610 C   0  0  0  0  0  0  0  0  0  0  0  0
   -2.9950   -0.7290  -18.7790 N   0  0  0  0  0  0  0  0  0  0  0  0
   -7.3660   -3.4580  -14.7870 N   0  0  0  0  0  0  0  0  0  0  0  0
   -3.6270   -2.4110  -15.7510 C   0  0  0  0  0  0  0  0  0  0  0  0
   -5.2240   -0.6490  -20.0590 C   0  0  0  0  0  0  0  0  0  0  0  0
   -6.3110   -1.9100  -17.7570 C   0  0  0  0  0  0  0  0  0  0  0  0
   -1.3420   -1.6370  -15.6100 C   0  0  0  0  0  0  0  0  0  0  0  0
   -6.9810   -2.5170  -16.6910 C   0  0  0  0  0  0  0  0  0  0  0  0
   -8.3970   -3.4780  -15.4160 N   0  0  0  0  0  0  0  0  0  0  0  0
   -7.0800   -1.5030  -18.8730 C   0  0  0  0  0  0  0  0  0  0  0  0
   -2.3620   -2.3840  -15.1050 C   0  0  0  0  0  0  0  0  0  0  0  0
  1 15  1  0
  2 12  1  0
  3  2  1  0
  3  1  2  0
  4 17  1  0
  5 14  1  0
  5  2  2  0
  6 11  1  0
  7 18  1  0
  8 10  2  0
  8  5  1  0
  9  4  1  0
 10  3  1  0
 12 19  2  0
 13  7  2  0
 13  8  1  0
 14 16  1  0
 15 19  1  0
 16  4  1  0
 16  6  2  0
 17 11  2  0
 18 14  2  0
M  END
$$$$

     RDKit          3D

 19 22  0  0  0  0  0  0  0  0999 V2000
   -1.0120   -1.4710  -17.2170 C   0  0  0  0  0  0  0  0  0  0  0  0
   -3.3950   -1.9910  -17.0610 C   0  0  0  0  0  0  0  0  0  0  0  0
   -2.3520   -1.4200  -17.7440 C   0  0  0  0  0  0  0  0  0  0  0  0
   -8.1060   -2.7540  -16.6260 C   0  0  0  0  0  0  0  0  0  0  0  0
   -4.6550   -1.7350  -17.8450 C   0  0  2  0  0  0  0  0  0  0  0  0
   -6.1460   -2.9430  -15.5440 C   0  0  0  0  0  0  0  0  0  0  0  0
   -6.4600   -0.8370  -19.8130 N   0  0  0  0  0  0  0  0  0  0  0  0
   -4.3500   -1.0570  -19.1170 C   0  0  0  0  0  0  0  0  0  0  0  0
   -9.2340   -2.5320  -17.5230 C   0  0  0  0  0  0  0  0  0  0  0  0
   -2.9470   -0.8960  -19.0160 N   0  0  0  0  0  0  0  0  0  0  0  0
   -7.1320   -3.5010  -14.7680 N   0  0  0  0  0  0  0  0  0  0  0  0
   -3.1380   -2.6260  -15.8320 C   0  0  0  0  0  0  0  0  0  0  0  0
   -5.2030   -0.6360  -20.0380 N   0  0  0  0  0  0  0  0  0  0  0  0
   -6.0830   -1.8660  -17.7250 C   0  0  0  0  0  0  0  0  0  0  0  0
   -0.8110   -2.0860  -16.0480 C   0  0  0  0  0  0  0  0  0  0  0  0
   -6.7160   -2.5110  -16.6780 C   0  0  0  0  0  0  0  0  0  0  0  0
   -8.3250   -3.4190  -15.4070 O   0  0  0  0  0  0  0  0  0  0  0  0
   -6.8690   -1.3700  -18.6950 N   0  0  0  0  0  0  0  0  0  0  0  0
   -1.8500   -2.6450  -15.3380 C   0  0  0  0  0  0  0  0  0  0  0  0
  1 15  2  0
  2 12  1  0
  3  1  1  0
  3  2  2  0
  4 17  1  0
  5  8  1  0
  5 14  1  1
  5  2  1  0
  6 11  2  0
  7 18  1  0
  8 10  2  0
  9  4  1  0
 10  3  1  0
 12 19  2  0
 13  7  2  0
 13  8  1  0
 14 16  1  0
 15 19  1  0
 16  4  2  0
 16  6  1  0
 17 11  1  0
 18 14  2  0
M  END
$$$$

     RDKit          3D

 19 22  0  0  0  0  0  0  0  0999 V2000
   -1.3110   -0.9050  -17.1130 C   0  0  0  0  0  0  0  0  0  0  0  0
   -3.6200   -1.8650  -17.0020 C   0  0  0  0  0  0  0  0  0  0  0  0
   -2.5190   -1.1570  -17.6650 C   0  0  1  0  0  0  0  0  0  0  0  0
   -8.0210   -3.0580  -16.3470 N   0  0  0  0  0  0  0  0  0  0  0  0
   -4.7940   -1.6190  -17.7400 C   0  0  0  0  0  0  0  0  0  0  0  0
   -6.0370   -3.1080  -15.4190 C   0  0  0  0  0  0  0  0  0  0  0  0
   -6.6210   -1.0410  -19.5280 C   0  0  0  0  0  0  0  0  0  0  0  0
   -4.4710   -0.9340  -18.8920 C   0  0  0  0  0  0  0  0  0  0  0  0
   -9.1780   -2.9630  -17.1890 C   0  0  0  0  0  0  0  0  0  0  0  0
   -3.1240   -0.6470  -18.8520 N   0  0  0  0  0  0  0  0  0  0  0  0
   -6.8780   -3.8310  -14.5750 N   0  0  0  0  0  0  0  0  0  0  0  0
   -3.2920   -2.6340  -15.8220 C   0  0  0  0  0  0  0  0  0  0  0  0
   -5.3660   -0.6430  -19.8650 N   0  0  0  0  0  0  0  0  0  0  0  0
   -6.1600   -1.9790  -17.5900 C   0  0  0  0  0  0  0  0  0  0  0  0
   -0.8420   -1.9970  -16.0670 C   0  0  0  0  0  0  0  0  0  0  0  0
   -6.7260   -2.6640  -16.5380 C   0  0  0  0  0  0  0  0  0  0  0  0
   -8.0760   -3.6610  -15.1980 N   0  0  0  0  0  0  0  0  0  0  0  0
   -7.0570   -1.6790  -18.4610 N   0  0  0  0  0  0  0  0  0  0  0  0
   -1.9880   -2.7120  -15.3890 C   0  0  0  0  0  0  0  0  0  0  0  0
  1 15  1  0
  2 12  1  0
  3  1  1  1
  3  2  1  0
  4 17  1  0
  5 14  1  0
  5  2  2  0
  6 11  1  0
  7 18  1  0
  8 10  2  0
  8  5  1  0
  9  4  1  0
 10  3  1  0
 12 19  2  0
 13  7  2  0
 13  8  1  0
 14 16  1  0
 15 19  1  0
 16  4  1  0
 16  6  2  0
 17 11  2  0
 18 14  2  0
M  END
$$$$

     RDKit          3D

 19 22  0  0  0  0  0  0  0  0999 V2000
   -1.6560   -1.5050  -17.0900 C   0  0  0  0  0  0  0  0  0  0  0  0
   -3.9350   -2.0270  -16.9560 C   0  0  0  0  0  0  0  0  0  0  0  0
   -2.8840   -1.5620  -17.5770 C   0  0  0  0  0  0  0  0  0  0  0  0
   -8.4600   -2.9580  -16.6760 C   0  0  0  0  0  0  0  0  0  0  0  0
   -5.0020   -1.7370  -17.8890 C   0  0  0  0  0  0  0  0  0  0  0  0
   -6.5790   -2.6750  -15.4190 C   0  0  0  0  0  0  0  0  0  0  0  0
   -6.6090   -0.9490  -19.9730 C   0  0  0  0  0  0  0  0  0  0  0  0
   -4.5100   -1.1020  -18.9830 C   0  0  0  0  0  0  0  0  0  0  0  0
   -9.5660   -3.0790  -17.4920 C   0  0  0  0  0  0  0  0  0  0  0  0
   -3.3110   -0.9750  -18.7550 N   0  0  0  0  0  0  0  0  0  0  0  0
   -7.5380   -3.1750  -14.6720 N   0  0  0  0  0  0  0  0  0  0  0  0
   -3.7030   -2.5130  -15.7480 C   0  0  0  0  0  0  0  0  0  0  0  0
   -5.2800   -0.6600  -20.0390 C   0  0  0  0  0  0  0  0  0  0  0  0
   -6.4900   -1.9530  -17.8180 C   0  0  0  0  0  0  0  0  0  0  0  0
   -1.4080   -2.0860  -15.9300 C   0  0  0  0  0  0  0  0  0  0  0  0
   -7.1560   -2.5610  -16.7510 C   0  0  0  0  0  0  0  0  0  0  0  0
   -8.6270   -3.4580  -15.4150 O   0  0  0  0  0  0  0  0  0  0  0  0
   -7.1790   -1.6020  -18.8950 C   0  0  0  0  0  0  0  0  0  0  0  0
   -2.4390   -2.5390  -15.2670 C   0  0  0  0  0  0  0  0  0  0  0  0
  1 15  1  0
  2 12  1  0
  3  1  2  0
  3  2  1  0
  4 17  1  0
  5 14  1  0
  5  2  2  0
  6 11  2  0
  7 18  1  0
  8 10  2  0
  8  5  1  0
  9  4  1  0
 10  3  1  0
 12 19  2  0
 13  7  2  0
 13  8  1  0
 14 16  1  0
 15 19  1  0
 16  4  2  0
 16  6  1  0
 17 11  1  0
 18 14  2  0
M  END
$$$$

     RDKit          3D

 19 22  0  0  0  0  0  0  0  0999 V2000
   -1.7860   -0.7210  -16.4290 C   0  0  0  0  0  0  0  0  0  0  0  0
   -4.0570   -1.7440  -16.8750 C   0  0  2  0  0  0  0  0  0  0  0  0
   -2.9800   -1.0400  -17.3530 C   0  0  2  0  0  0  0  0  0  0  0  0
   -8.2960   -3.1600  -16.7570 C   0  0  0  0  0  0  0  0  0  0  0  0
   -5.1780   -1.4990  -17.9100 C   0  0  0  0  0  0  0  0  0  0  0  0
   -6.3710   -3.2670  -15.5650 C   0  0  0  0  0  0  0  0  0  0  0  0
   -6.8410   -0.7760  -19.8840 N   0  0  0  0  0  0  0  0  0  0  0  0
   -4.6830   -0.8580  -19.0240 C   0  0  0  0  0  0  0  0  0  0  0  0
   -9.5160   -2.9330  -17.7650 S   0  0  0  0  0  0  0  0  0  0  0  0
   -2.9220   -0.6170  -18.9630 S   0  0  0  0  0  0  0  0  0  0  0  0
   -7.4170   -3.8470  -14.8490 N   0  0  0  0  0  0  0  0  0  0  0  0
   -3.9530   -2.3570  -15.4470 C   0  0  0  0  0  0  0  0  0  0  0  0
   -5.5650   -0.4450  -20.0120 C   0  0  0  0  0  0  0  0  0  0  0  0
   -6.4710   -1.8320  -17.8690 C   0  0  0  0  0  0  0  0  0  0  0  0
   -1.5030   -1.8710  -15.5850 C   0  0  0  0  0  0  0  0  0  0  0  0
   -6.9450   -2.7300  -16.7920 C   0  0  2  0  0  0  0  0  0  0  0  0
   -8.6250   -3.8160  -15.5450 N   0  0  0  0  0  0  0  0  0  0  0  0
   -7.3100   -1.5140  -18.8200 N   0  0  0  0  0  0  0  0  0  0  0  0
   -2.5950   -2.7980  -15.2830 C   0  0  0  0  0  0  0  0  0  0  0  0
  1 15  1  0
  2 12  1  1
  3  2  1  0
  3  1  1  6
  4 17  1  0
  5 14  1  0
  5  2  1  0
  6 11  2  0
  7 18  1  0
  8 10  1  0
  8  5  2  0
  9  4  2  0
 10  3  1  0
 12 19  1  0
 13  7  2  0
 13  8  1  0
 15 19  1  0
 16 14  1  1
 16  4  1  0
 16  6  1  0
 17 11  1  0
 18 14  2  0
M  END
$$$$

     RDKit          3D

 19 22  0  0  0  0  0  0  0  0999 V2000
   -1.4650   -0.9120  -16.5790 C   0  0  0  0  0  0  0  0  0  0  0  0
   -3.6300   -1.8830  -16.7470 C   0  0  0  0  0  0  0  0  0  0  0  0
   -2.6100   -1.1510  -17.2060 C   0  0  0  0  0  0  0  0  0  0  0  0
   -8.0480   -3.1910  -16.3790 N   0  0  0  0  0  0  0  0  0  0  0  0
   -4.7940   -1.7510  -17.6560 C   0  0  2  0  0  0  0  0  0  0  0  0
   -6.2030   -3.3900  -15.4610 C   0  0  0  0  0  0  0  0  0  0  0  0
   -6.4160   -0.8150  -19.6520 C   0  0  0  0  0  0  0  0  0  0  0  0
   -4.3930   -0.9230  -18.6850 C   0  0  0  0  0  0  0  0  0  0  0  0
   -9.1120   -3.0550  -17.1380 C   0  0  0  0  0  0  0  0  0  0  0  0
   -2.9980   -0.6440  -18.4290 N   0  0  0  0  0  0  0  0  0  0  0  0
   -7.0500   -4.0650  -14.8420 N   0  0  0  0  0  0  0  0  0  0  0  0
   -3.3510   -2.6680  -15.6110 C   0  0  0  0  0  0  0  0  0  0  0  0
   -5.1400   -0.5630  -19.6410 N   0  0  0  0  0  0  0  0  0  0  0  0
   -6.2050   -1.9880  -17.6050 C   0  0  0  0  0  0  0  0  0  0  0  0
   -1.2430   -1.6830  -15.4590 C   0  0  0  0  0  0  0  0  0  0  0  0
   -6.7880   -2.7070  -16.6380 C   0  0  0  0  0  0  0  0  0  0  0  0
   -8.1310   -3.9840  -15.4150 N   0  0  0  0  0  0  0  0  0  0  0  0
   -7.0070   -1.4700  -18.6410 N   0  0  0  0  0  0  0  0  0  0  0  0
   -2.2150   -2.5200  -14.9460 C   0  0  0  0  0  0  0  0  0  0  0  0
  1 15  2  0
  2 12  1  0
  3  2  2  0
  3  1  1  0
  4 17  1  0
  5  8  1  0
  5 14  1  1
  5  2  1  0
  6 11  1  0
  7 13  2  0
  7 18  1  0
  8 10  2  0
  9  4  1  0
 10  3  1  0
 12 19  2  0
 13  8  1  0
 14 16  1  0
 15 19  1  0
 16  4  1  0
 16  6  2  0
 17 11  2  0
 18 14  2  0
M  END
$$$$

     RDKit          3D

 19 22  0  0  0  0  0  0  0  0999 V2000
   -1.7370   -1.1960  -16.7270 C   0  0  0  0  0  0  0  0  0  0  0  0
   -3.9520   -2.0520  -16.9090 C   0  0  0  0  0  0  0  0  0  0  0  0
   -2.8390   -1.5610  -17.3580 C   0  0  0  0  0  0  0  0  0  0  0  0
   -8.4330   -2.7960  -16.5180 C   0  0  0  0  0  0  0  0  0  0  0  0
   -5.0360   -1.7070  -17.7950 N   0  0  0  0  0  0  0  0  0  0  0  0
   -6.4770   -2.8090  -15.4040 N   0  0  0  0  0  0  0  0  0  0  0  0
   -6.6140   -0.7530  -19.9040 C   0  0  0  0  0  0  0  0  0  0  0  0
   -4.4410   -1.0900  -18.8750 C   0  0  0  0  0  0  0  0  0  0  0  0
   -9.4930   -2.8440  -17.3590 C   0  0  0  0  0  0  0  0  0  0  0  0
   -3.1280   -0.9890  -18.6810 N   0  0  0  0  0  0  0  0  0  0  0  0
   -7.4640   -3.3520  -14.7550 O   0  0  0  0  0  0  0  0  0  0  0  0
   -3.7580   -2.7250  -15.6060 C   0  0  0  0  0  0  0  0  0  0  0  0
   -5.2450   -0.5300  -19.9250 C   0  0  0  0  0  0  0  0  0  0  0  0
   -6.4660   -1.8510  -17.7400 C   0  0  0  0  0  0  0  0  0  0  0  0
   -1.5180   -1.7290  -15.5470 C   0  0  0  0  0  0  0  0  0  0  0  0
   -7.1120   -2.4450  -16.6580 C   0  0  0  0  0  0  0  0  0  0  0  0
   -8.6990   -3.3080  -15.3130 N   0  0  0  0  0  0  0  0  0  0  0  0
   -7.1540   -1.3710  -18.7560 C   0  0  0  0  0  0  0  0  0  0  0  0
   -2.5440   -2.5690  -14.9680 C   0  0  0  0  0  0  0  0  0  0  0  0
  1 15  2  0
  2 12  1  0
  3  2  2  0
  3  1  1  0
  4 17  2  0
  5 14  1  0
  5  2  1  0
  6 11  1  0
  7 18  1  0
  8 10  2  0
  8  5  1  0
  9  4  1  0
 10  3  1  0
 12 19  2  0
 13  7  2  0
 13  8  1  0
 14 16  1  0
 15 19  1  0
 16  4  1  0
 16  6  2  0
 17 11  1  0
 18 14  2  0
M  END
$$$$

     RDKit          3D

 19 22  0  0  0  0  0  0  0  0999 V2000
   -1.3050   -1.2580  -17.5820 C   0  0  0  0  0  0  0  0  0  0  0  0
   -3.7030   -1.6640  -17.2190 C   0  0  0  0  0  0  0  0  0  0  0  0
   -2.6240   -1.3100  -18.0110 C   0  0  0  0  0  0  0  0  0  0  0  0
   -8.2910   -2.6830  -16.2580 C   0  0  0  0  0  0  0  0  0  0  0  0
   -4.9010   -1.5750  -17.9610 C   0  0  0  0  0  0  0  0  0  0  0  0
   -6.3300   -3.1790  -15.5670 N   0  0  0  0  0  0  0  0  0  0  0  0
   -6.8010   -1.0270  -19.8090 C   0  0  0  0  0  0  0  0  0  0  0  0
   -4.5350   -1.0040  -19.1150 C   0  0  0  0  0  0  0  0  0  0  0  0
   -9.3990   -2.2610  -17.0150 N   0  0  0  0  0  0  0  0  0  0  0  0
   -3.2010   -0.9140  -19.1900 N   0  0  0  0  0  0  0  0  0  0  0  0
   -7.1800   -3.7270  -14.6930 O   0  0  0  0  0  0  0  0  0  0  0  0
   -3.4020   -2.0280  -15.7770 C   0  0  0  0  0  0  0  0  0  0  0  0
   -5.4630   -0.7530  -20.1140 C   0  0  0  0  0  0  0  0  0  0  0  0
   -6.2680   -1.8830  -17.7190 C   0  0  0  0  0  0  0  0  0  0  0  0
   -1.0030   -1.5900  -16.2520 C   0  0  0  0  0  0  0  0  0  0  0  0
   -6.9480   -2.6150  -16.5380 C   0  0  0  0  0  0  0  0  0  0  0  0
   -8.4950   -3.4270  -15.1950 N   0  0  0  0  0  0  0  0  0  0  0  0
   -7.1740   -1.5610  -18.6950 N   0  0  0  0  0  0  0  0  0  0  0  0
   -2.0730   -1.8650  -15.4290 C   0  0  0  0  0  0  0  0  0  0  0  0
  1 15  1  0
  2 12  1  0
  3  1  2  0
  3  2  1  0
  4 17  2  0
  5 14  1  0
  5  2  2  0
  6 11  1  0
  7 18  1  0
  8  5  1  0
  9  4  1  0
 10  8  2  0
 10  3  1  0
 12 19  2  0
 13  7  2  0
 13  8  1  0
 14 16  1  0
 15 19  1  0
 16  4  1  0
 16  6  2  0
 17 11  1  0
 18 14  2  0
M  END
$$$$

     RDKit          3D

 19 22  0  0  0  0  0  0  0  0999 V2000
   -1.7270   -0.8470  -16.4650 C   0  0  0  0  0  0  0  0  0  0  0  0
   -3.9430   -1.8300  -16.8540 N   0  0  0  0  0  0  0  0  0  0  0  0
   -2.6300   -1.4330  -17.4710 C   0  0  1  0  0  0  0  0  0  0  0  0
   -8.3870   -2.9470  -16.4860 C   0  0  0  0  0  0  0  0  0  0  0  0
   -4.9900   -1.6180  -17.8370 C   0  0  0  0  0  0  0  0  0  0  0  0
   -6.4720   -3.2730  -15.4540 C   0  0  0  0  0  0  0  0  0  0  0  0
   -6.6970   -0.8890  -20.0180 N   0  0  0  0  0  0  0  0  0  0  0  0
   -4.5120   -0.9770  -18.9950 C   0  0  0  0  0  0  0  0  0  0  0  0
   -9.4570   -2.6930  -17.4120 C   0  0  0  0  0  0  0  0  0  0  0  0
   -2.7990   -0.6550  -18.9800 S   0  0  0  0  0  0  0  0  0  0  0  0
   -7.4170   -3.9020  -14.7110 C   0  0  0  0  0  0  0  0  0  0  0  0
   -3.8100   -2.4030  -15.4220 C   0  0  0  0  0  0  0  0  0  0  0  0
   -5.3650   -0.6940  -20.0790 C   0  0  0  0  0  0  0  0  0  0  0  0
   -6.4280   -1.9100  -17.7410 C   0  0  0  0  0  0  0  0  0  0  0  0
   -1.3650   -1.7200  -15.2900 C   0  0  0  0  0  0  0  0  0  0  0  0
   -7.0670   -2.6590  -16.6060 N   0  0  0  0  0  0  0  0  0  0  0  0
   -8.6220   -3.6020  -15.2710 N   0  0  0  0  0  0  0  0  0  0  0  0
   -7.2450   -1.5310  -18.9010 C   0  0  0  0  0  0  0  0  0  0  0  0
   -2.3540   -2.8460  -15.1020 C   0  0  0  0  0  0  0  0  0  0  0  0
  1 15  1  0
  2 12  1  0
  3  2  1  0
  3  1  1  1
  4 17  2  0
  5 14  1  0
  5  2  1  0
  6 11  2  0
  7 18  1  0
  8 10  1  0
  8  5  2  0
  9  4  1  0
 10  3  1  0
 12 19  1  0
 13  7  2  0
 13  8  1  0
 14 16  1  0
 15 19  1  0
 16  4  1  0
 16  6  1  0
 17 11  1  0
 18 14  2  0
M  END
$$$$

     RDKit          3D

 19 22  0  0  0  0  0  0  0  0999 V2000
   -1.3740   -1.0330  -16.8790 C   0  0  0  0  0  0  0  0  0  0  0  0
   -3.7000   -1.7540  -16.8710 C   0  0  0  0  0  0  0  0  0  0  0  0
   -2.6170   -1.1520  -17.5050 C   0  0  0  0  0  0  0  0  0  0  0  0
   -8.2200   -3.2610  -16.5070 C   0  0  0  0  0  0  0  0  0  0  0  0
   -4.8290   -1.5990  -17.6510 C   0  0  0  0  0  0  0  0  0  0  0  0
   -6.2490   -3.2380  -15.3960 C   0  0  0  0  0  0  0  0  0  0  0  0
   -6.5120   -0.7480  -19.6680 C   0  0  0  0  0  0  0  0  0  0  0  0
   -4.3810   -0.9190  -18.8910 C   0  0  0  0  0  0  0  0  0  0  0  0
   -9.1280   -2.9600  -17.2810 O   0  0  0  0  0  0  0  0  0  0  0  0
   -2.9850   -0.7330  -18.7550 N   0  0  0  0  0  0  0  0  0  0  0  0
   -7.1510   -3.9960  -14.7040 N   0  0  0  0  0  0  0  0  0  0  0  0
   -3.4760   -2.3490  -15.5840 C   0  0  0  0  0  0  0  0  0  0  0  0
   -5.2330   -0.4780  -19.8380 C   0  0  0  0  0  0  0  0  0  0  0  0
   -6.1970   -1.9180  -17.6220 C   0  0  0  0  0  0  0  0  0  0  0  0
   -1.1990   -1.5360  -15.6650 C   0  0  0  0  0  0  0  0  0  0  0  0
   -6.8220   -2.7790  -16.5740 C   0  0  2  0  0  0  0  0  0  0  0  0
   -8.3690   -3.9790  -15.4050 N   0  0  0  0  0  0  0  0  0  0  0  0
   -6.9550   -1.4190  -18.5910 C   0  0  0  0  0  0  0  0  0  0  0  0
   -2.2410   -2.2230  -15.0050 C   0  0  0  0  0  0  0  0  0  0  0  0
  1 15  1  0
  2 12  1  0
  3  1  2  0
  3  2  1  0
  4 17  1  0
  5 14  1  0
  5  2  2  0
  6 11  2  0
  7 18  1  0
  8 10  2  0
  8  5  1  0
  9  4  2  0
 10  3  1  0
 12 19  2  0
 13  7  2  0
 13  8  1  0
 15 19  1  0
 16 14  1  1
 16  4  1  0
 16  6  1  0
 17 11  1  0
 18 14  2  0
M  END
$$$$

     RDKit          3D

 19 22  0  0  0  0  0  0  0  0999 V2000
   -1.4300   -0.9770  -17.1620 C   0  0  0  0  0  0  0  0  0  0  0  0
   -3.7000   -1.8610  -17.1260 C   0  0  0  0  0  0  0  0  0  0  0  0
   -2.6880   -1.1250  -17.7380 C   0  0  0  0  0  0  0  0  0  0  0  0
   -8.3830   -2.9370  -16.5400 C   0  0  0  0  0  0  0  0  0  0  0  0
   -4.9560   -1.6340  -17.9360 C   0  0  0  0  0  0  0  0  0  0  0  0
   -6.3890   -3.1360  -15.5950 O   0  0  0  0  0  0  0  0  0  0  0  0
   -6.6630   -0.9520  -20.0950 C   0  0  0  0  0  0  0  0  0  0  0  0
   -4.4430   -0.8870  -19.0490 C   0  0  0  0  0  0  0  0  0  0  0  0
   -9.5640   -2.4710  -17.2330 C   0  0  0  0  0  0  0  0  0  0  0  0
   -3.1080   -0.6200  -18.9710 N   0  0  0  0  0  0  0  0  0  0  0  0
   -7.2210   -3.8600  -14.9130 O   0  0  0  0  0  0  0  0  0  0  0  0
   -3.3140   -2.5650  -15.9410 C   0  0  0  0  0  0  0  0  0  0  0  0
   -5.2670   -0.5740  -20.1610 C   0  0  0  0  0  0  0  0  0  0  0  0
   -6.3310   -1.9280  -17.8040 C   0  0  0  0  0  0  0  0  0  0  0  0
   -1.0960   -1.6370  -15.9630 C   0  0  0  0  0  0  0  0  0  0  0  0
   -7.0330   -2.5910  -16.7190 C   0  0  1  0  0  0  0  0  0  0  0  0
   -8.4820   -3.8120  -15.5240 N   0  0  0  0  0  0  0  0  0  0  0  0
   -7.1700   -1.5830  -18.9270 C   0  0  0  0  0  0  0  0  0  0  0  0
   -2.1220   -2.4160  -15.3570 C   0  0  0  0  0  0  0  0  0  0  0  0
  1 15  1  0
  2 12  1  0
  3  1  2  0
  3  2  1  0
  4 17  2  0
  5 14  1  0
  5  2  2  0
  6 11  1  0
  7 18  1  0
  8 10  2  0
  8  5  1  0
  9  4  1  0
 10  3  1  0
 12 19  2  0
 13  7  2  0
 13  8  1  0
 15 19  1  0
 16 14  1  6
 16  4  1  0
 16  6  1  0
 17 11  1  0
 18 14  2  0
M  END
$$$$

     RDKit          3D

 19 22  0  0  0  0  0  0  0  0999 V2000
   -1.5770   -1.1040  -16.9180 C   0  0  0  0  0  0  0  0  0  0  0  0
   -3.8790   -1.8720  -17.1010 C   0  0  0  0  0  0  0  0  0  0  0  0
   -2.7640   -1.2050  -17.5800 C   0  0  0  0  0  0  0  0  0  0  0  0
   -8.3330   -2.7980  -16.3770 C   0  0  0  0  0  0  0  0  0  0  0  0
   -5.0040   -1.6070  -17.9270 C   0  0  0  0  0  0  0  0  0  0  0  0
   -6.3020   -3.0670  -15.5900 N   0  0  0  0  0  0  0  0  0  0  0  0
   -6.7740   -0.8760  -19.9350 N   0  0  0  0  0  0  0  0  0  0  0  0
   -4.5280   -0.9190  -19.0230 C   0  0  0  0  0  0  0  0  0  0  0  0
   -9.7670   -2.3100  -17.1770 S   0  0  0  0  0  0  0  0  0  0  0  0
   -3.1650   -0.7240  -18.8680 C   0  0  0  0  0  0  0  0  0  0  0  0
   -7.2270   -3.6440  -14.7570 N   0  0  0  0  0  0  0  0  0  0  0  0
   -3.7120   -2.6920  -15.9280 C   0  0  0  0  0  0  0  0  0  0  0  0
   -5.4650   -0.6180  -20.0150 C   0  0  0  0  0  0  0  0  0  0  0  0
   -6.3530   -1.8860  -17.7140 C   0  0  0  0  0  0  0  0  0  0  0  0
   -1.5010   -1.9290  -15.7240 C   0  0  0  0  0  0  0  0  0  0  0  0
   -6.9910   -2.5170  -16.6320 C   0  0  0  0  0  0  0  0  0  0  0  0
   -8.4800   -3.5490  -15.2700 N   0  0  0  0  0  0  0  0  0  0  0  0
   -7.1630   -1.5090  -18.8030 C   0  0  0  0  0  0  0  0  0  0  0  0
   -2.5290   -2.6620  -15.2900 N   0  0  0  0  0  0  0  0  0  0  0  0
  1 15  1  0
  2 12  1  0
  3  2  1  0
  3  1  2  0
  4 17  1  0
  5 14  1  0
  5  2  2  0
  6 11  1  0
  7 18  1  0
  8 10  2  0
  8  5  1  0
  9  4  2  0
 10  3  1  0
 12 19  2  0
 13  7  2  0
 13  8  1  0
 14 16  1  0
 15 19  1  0
 16  4  1  0
 16  6  2  0
 17 11  2  0
 18 14  2  0
M  END
$$$$

     RDKit          3D

 19 22  0  0  0  0  0  0  0  0999 V2000
   -1.4700   -1.0630  -17.2420 C   0  0  0  0  0  0  0  0  0  0  0  0
   -3.7140   -1.7730  -17.0560 C   0  0  0  0  0  0  0  0  0  0  0  0
   -2.7520   -1.2060  -17.6740 C   0  0  0  0  0  0  0  0  0  0  0  0
   -8.3620   -2.8370  -16.5170 N   0  0  0  0  0  0  0  0  0  0  0  0
   -4.9640   -1.6240  -17.7630 C   0  0  0  0  0  0  0  0  0  0  0  0
   -6.4830   -3.0060  -15.5050 N   0  0  0  0  0  0  0  0  0  0  0  0
   -6.6520   -0.7960  -19.8110 C   0  0  0  0  0  0  0  0  0  0  0  0
   -4.5700   -1.0100  -18.9620 C   0  0  0  0  0  0  0  0  0  0  0  0
   -9.5950   -2.4960  -17.3800 C   0  0  0  0  0  0  0  0  0  0  0  0
   -3.1870   -0.8030  -18.8330 N   0  0  0  0  0  0  0  0  0  0  0  0
   -7.4700   -3.5540  -14.8810 N   0  0  0  0  0  0  0  0  0  0  0  0
   -3.4320   -2.4200  -15.8440 C   0  0  0  0  0  0  0  0  0  0  0  0
   -5.3410   -0.6060  -20.0010 C   0  0  0  0  0  0  0  0  0  0  0  0
   -6.3830   -1.9420  -17.7370 C   0  0  0  0  0  0  0  0  0  0  0  0
   -1.1220   -1.6980  -16.0100 C   0  0  0  0  0  0  0  0  0  0  0  0
   -7.0280   -2.5230  -16.6440 C   0  0  0  0  0  0  0  0  0  0  0  0
   -8.5780   -3.4810  -15.4410 N   0  0  0  0  0  0  0  0  0  0  0  0
   -7.0750   -1.4240  -18.6990 C   0  0  0  0  0  0  0  0  0  0  0  0
   -2.1370   -2.3700  -15.3410 C   0  0  0  0  0  0  0  0  0  0  0  0
  1 15  1  0
  2 12  1  0
  3  1  2  0
  3  2  1  0
  4 17  1  0
  5 14  1  0
  5  2  2  0
  6 11  1  0
  7 18  1  0
  8 10  2  0
  8  5  1  0
  9  4  1  0
 10  3  1  0
 12 19  2  0
 13  7  2  0
 13  8  1  0
 14 16  1  0
 15 19  1  0
 16  4  1  0
 16  6  2  0
 17 11  2  0
 18 14  2  0
M  END
$$$$

     RDKit          3D

 19 22  0  0  0  0  0  0  0  0999 V2000
   -1.5380   -0.9070  -16.9270 C   0  0  0  0  0  0  0  0  0  0  0  0
   -3.7910   -1.8840  -17.0960 C   0  0  0  0  0  0  0  0  0  0  0  0
   -2.7440   -1.2010  -17.6650 C   0  0  0  0  0  0  0  0  0  0  0  0
   -8.3540   -2.6270  -16.5180 C   0  0  0  0  0  0  0  0  0  0  0  0
   -4.9400   -1.6170  -17.8340 C   0  0  0  0  0  0  0  0  0  0  0  0
   -6.4600   -2.9460  -15.5420 C   0  0  0  0  0  0  0  0  0  0  0  0
   -6.5750   -0.8860  -19.8170 N   0  0  0  0  0  0  0  0  0  0  0  0
   -4.5070   -0.9210  -18.8950 C   0  0  0  0  0  0  0  0  0  0  0  0
   -9.5620   -2.3610  -17.0970 N   0  0  0  0  0  0  0  0  0  0  0  0
   -3.1530   -0.6550  -18.7940 N   0  0  0  0  0  0  0  0  0  0  0  0
   -7.3740   -3.5900  -14.8410 N   0  0  0  0  0  0  0  0  0  0  0  0
   -3.6070   -2.6230  -16.0350 C   0  0  0  0  0  0  0  0  0  0  0  0
   -5.3780   -0.5860  -19.8910 C   0  0  0  0  0  0  0  0  0  0  0  0
   -6.3800   -1.8700  -17.7510 C   0  0  0  0  0  0  0  0  0  0  0  0
   -1.4040   -1.8010  -15.8440 C   0  0  0  0  0  0  0  0  0  0  0  0
   -7.0420   -2.4690  -16.6440 C   0  0  0  0  0  0  0  0  0  0  0  0
   -8.5900   -3.3890  -15.4380 O   0  0  0  0  0  0  0  0  0  0  0  0
   -7.1290   -1.5310  -18.7960 C   0  0  0  0  0  0  0  0  0  0  0  0
   -2.3220   -2.6500  -15.3830 C   0  0  0  0  0  0  0  0  0  0  0  0
  1 15  1  0
  2 12  1  0
  3  2  1  0
  3  1  2  0
  4 17  1  0
  5 14  1  0
  5  2  2  0
  6 11  2  0
  7 18  1  0
  8 10  2  0
  8  5  1  0
  9  4  1  0
 10  3  1  0
 12 19  2  0
 13  7  2  0
 13  8  1  0
 14 16  1  0
 15 19  1  0
 16  4  2  0
 16  6  1  0
 17 11  1  0
 18 14  2  0
M  END
$$$$

     RDKit          3D

 19 22  0  0  0  0  0  0  0  0999 V2000
   -1.3220   -1.1690  -16.7770 C   0  0  0  0  0  0  0  0  0  0  0  0
   -3.7430   -1.9260  -16.9770 C   0  0  0  0  0  0  0  0  0  0  0  0
   -2.5170   -1.3280  -17.5120 C   0  0  0  0  0  0  0  0  0  0  0  0
   -8.6060   -2.8490  -16.7630 C   0  0  0  0  0  0  0  0  0  0  0  0
   -4.9020   -1.5630  -17.8540 C   0  0  0  0  0  0  0  0  0  0  0  0
   -6.5790   -2.8360  -15.6620 N   0  0  0  0  0  0  0  0  0  0  0  0
   -6.5880   -0.7230  -20.0930 C   0  0  0  0  0  0  0  0  0  0  0  0
   -4.2930   -0.9210  -19.0010 C   0  0  0  0  0  0  0  0  0  0  0  0
   -9.6000   -2.7520  -17.6840 N   0  0  0  0  0  0  0  0  0  0  0  0
   -2.9600   -0.7320  -18.8730 C   0  0  0  0  0  0  0  0  0  0  0  0
   -7.7550   -3.4360  -14.9720 O   0  0  0  0  0  0  0  0  0  0  0  0
   -3.5430   -2.5590  -15.7240 C   0  0  0  0  0  0  0  0  0  0  0  0
   -5.1760   -0.5050  -20.2060 C   0  0  0  0  0  0  0  0  0  0  0  0
   -6.4050   -1.7090  -17.9190 C   0  0  0  0  0  0  0  0  0  0  0  0
   -1.2460   -1.8770  -15.5800 C   0  0  0  0  0  0  0  0  0  0  0  0
   -7.2250   -2.3660  -16.8470 C   0  0  0  0  0  0  0  0  0  0  0  0
   -8.8210   -3.5780  -15.7650 N   0  0  0  0  0  0  0  0  0  0  0  0
   -7.1590   -1.2530  -18.9280 N   0  0  0  0  0  0  0  0  0  0  0  0
   -2.3190   -2.4830  -15.0140 C   0  0  0  0  0  0  0  0  0  0  0  0
  1 15  1  0
  2 12  1  0
  3  2  1  0
  3  1  2  0
  4 17  1  0
  5  2  2  0
  6 11  1  0
  7 18  1  0
  8 10  2  0
  8  5  1  0
  9  4  1  0
 10  3  1  0
 12 19  2  0
 13  7  2  0
 13  8  1  0
 14  5  1  0
 14 16  1  0
 15 19  1  0
 16  4  2  0
 16  6  1  0
 17 11  1  0
 18 14  2  0
M  END
$$$$

     RDKit          3D

 19 22  0  0  0  0  0  0  0  0999 V2000
   -1.1560   -0.8070  -17.4230 C   0  0  0  0  0  0  0  0  0  0  0  0
   -3.4590   -1.6850  -17.2260 C   0  0  0  0  0  0  0  0  0  0  0  0
   -2.4700   -1.0010  -17.9480 C   0  0  0  0  0  0  0  0  0  0  0  0
   -8.1860   -3.2300  -16.6060 C   0  0  0  0  0  0  0  0  0  0  0  0
   -4.7710   -1.5230  -17.9960 C   0  0  0  0  0  0  0  0  0  0  0  0
   -6.1850   -3.1120  -15.5910 N   0  0  0  0  0  0  0  0  0  0  0  0
   -6.7480   -0.8280  -19.9600 C   0  0  0  0  0  0  0  0  0  0  0  0
   -4.5280   -0.9040  -19.2780 C   0  0  0  0  0  0  0  0  0  0  0  0
   -9.1910   -3.0990  -17.3750 N   0  0  0  0  0  0  0  0  0  0  0  0
   -2.8160   -0.5860  -19.4410 S   0  0  0  0  0  0  0  0  0  0  0  0
   -7.0730   -3.8370  -14.7530 C   0  0  0  0  0  0  0  0  0  0  0  0
   -3.1690   -2.1950  -15.9780 C   0  0  0  0  0  0  0  0  0  0  0  0
   -5.3820   -0.5450  -20.1320 N   0  0  0  0  0  0  0  0  0  0  0  0
   -6.1790   -1.9330  -17.8050 C   0  0  0  0  0  0  0  0  0  0  0  0
   -0.8880   -1.3040  -16.1450 C   0  0  0  0  0  0  0  0  0  0  0  0
   -6.8380   -2.7340  -16.7110 C   0  0  0  0  0  0  0  0  0  0  0  0
   -8.2870   -3.9400  -15.4220 O   0  0  0  0  0  0  0  0  0  0  0  0
   -7.1980   -1.4940  -18.7950 C   0  0  0  0  0  0  0  0  0  0  0  0
   -1.9500   -1.9980  -15.4130 C   0  0  0  0  0  0  0  0  0  0  0  0
  1 15  2  0
  2 12  1  0
  3  1  1  0
  3  2  2  0
  4 17  1  0
  5 14  1  0
  5  2  1  0
  6 11  2  0
  7 18  1  0
  8  5  2  0
  9  4  1  0
 10  8  1  0
 10  3  1  0
 12 19  2  0
 13  7  2  0
 13  8  1  0
 14 16  1  0
 15 19  1  0
 16  4  2  0
 16  6  1  0
 17 11  1  0
 18 14  2  0
M  END
$$$$

     RDKit          3D

 19 22  0  0  0  0  0  0  0  0999 V2000
   -1.4870   -0.9780  -17.0630 C   0  0  0  0  0  0  0  0  0  0  0  0
   -3.7070   -2.0110  -16.9670 C   0  0  0  0  0  0  0  0  0  0  0  0
   -2.6900   -1.2800  -17.5900 C   0  0  0  0  0  0  0  0  0  0  0  0
   -8.2440   -3.1260  -16.3370 C   0  0  0  0  0  0  0  0  0  0  0  0
   -4.9040   -1.8380  -17.7720 C   0  0  0  0  0  0  0  0  0  0  0  0
   -6.2170   -2.9650  -15.4180 N   0  0  0  0  0  0  0  0  0  0  0  0
   -6.6370   -1.1890  -19.7870 C   0  0  0  0  0  0  0  0  0  0  0  0
   -4.5310   -1.0850  -18.9100 C   0  0  0  0  0  0  0  0  0  0  0  0
   -9.3240   -3.1650  -17.1590 C   0  0  0  0  0  0  0  0  0  0  0  0
   -3.3020   -0.8280  -18.7180 N   0  0  0  0  0  0  0  0  0  0  0  0
   -7.0480   -3.5190  -14.4980 N   0  0  0  0  0  0  0  0  0  0  0  0
   -3.2590   -2.6900  -15.8780 C   0  0  0  0  0  0  0  0  0  0  0  0
   -5.3790   -0.7310  -19.9060 C   0  0  0  0  0  0  0  0  0  0  0  0
   -6.3590   -2.1190  -17.6440 C   0  0  0  0  0  0  0  0  0  0  0  0
   -1.1410   -1.4870  -15.8210 C   0  0  0  0  0  0  0  0  0  0  0  0
   -6.8910   -2.6750  -16.5170 N   0  0  0  0  0  0  0  0  0  0  0  0
   -8.2520   -3.6630  -15.0530 N   0  0  0  0  0  0  0  0  0  0  0  0
   -7.0860   -1.9410  -18.7870 C   0  0  0  0  0  0  0  0  0  0  0  0
   -2.0650   -2.4090  -15.1730 C   0  0  0  0  0  0  0  0  0  0  0  0
  1 15  1  0
  2 12  1  0
  3  1  2  0
  3  2  1  0
  4 17  2  0
  5 14  1  0
  5  2  2  0
  6 11  2  0
  7 18  1  0
  8 10  2  0
  8  5  1  0
  9  4  1  0
 10  3  1  0
 12 19  2  0
 13  7  2  0
 13  8  1  0
 14 16  1  0
 15 19  1  0
 16  4  1  0
 16  6  1  0
 17 11  1  0
 18 14  2  0
M  END
$$$$

     RDKit          3D

 19 22  0  0  0  0  0  0  0  0999 V2000
   -1.4340   -1.2540  -17.1570 C   0  0  0  0  0  0  0  0  0  0  0  0
   -3.7770   -1.8420  -17.0600 C   0  0  0  0  0  0  0  0  0  0  0  0
   -2.6850   -1.3210  -17.7070 C   0  0  0  0  0  0  0  0  0  0  0  0
   -8.2730   -3.0830  -16.4090 N   0  0  0  0  0  0  0  0  0  0  0  0
   -4.9320   -1.6610  -17.9010 C   0  0  2  0  0  0  0  0  0  0  0  0
   -6.2820   -3.0510  -15.5210 C   0  0  0  0  0  0  0  0  0  0  0  0
   -6.6040   -0.8200  -19.8440 C   0  0  0  0  0  0  0  0  0  0  0  0
   -4.4980   -0.9920  -19.0640 C   0  0  0  0  0  0  0  0  0  0  0  0
   -9.4550   -2.6170  -17.1130 C   0  0  0  0  0  0  0  0  0  0  0  0
   -3.0640   -0.9000  -18.9910 N   0  0  0  0  0  0  0  0  0  0  0  0
   -7.1920   -3.9080  -14.7100 C   0  0  0  0  0  0  0  0  0  0  0  0
   -3.5990   -2.4160  -15.7630 C   0  0  0  0  0  0  0  0  0  0  0  0
   -5.2910   -0.6240  -20.0470 N   0  0  0  0  0  0  0  0  0  0  0  0
   -6.2890   -1.8880  -17.7260 C   0  0  0  0  0  0  0  0  0  0  0  0
   -1.2820   -1.7680  -15.8610 C   0  0  0  0  0  0  0  0  0  0  0  0
   -6.9790   -2.6180  -16.5610 C   0  0  0  0  0  0  0  0  0  0  0  0
   -8.3980   -3.8430  -15.3010 N   0  0  0  0  0  0  0  0  0  0  0  0
   -7.1450   -1.4780  -18.7770 N   0  0  0  0  0  0  0  0  0  0  0  0
   -2.3340   -2.3640  -15.2160 C   0  0  0  0  0  0  0  0  0  0  0  0
  1 15  2  0
  2 12  1  0
  3  1  1  0
  3  2  2  0
  4 17  1  0
  5  8  1  0
  5 14  1  1
  5  2  1  0
  6 11  1  0
  7 18  1  0
  8 10  2  0
  9  4  1  0
 10  3  1  0
 12 19  2  0
 13  7  2  0
 13  8  1  0
 14 16  1  0
 15 19  1  0
 16  4  1  0
 16  6  2  0
 17 11  2  0
 18 14  2  0
M  END
$$$$

     RDKit          3D

 19 22  0  0  0  0  0  0  0  0999 V2000
   -1.2440   -0.5900  -17.1370 C   0  0  0  0  0  0  0  0  0  0  0  0
   -3.5360   -1.6800  -17.1260 C   0  0  0  0  0  0  0  0  0  0  0  0
   -2.4220   -0.9410  -17.8160 C   0  0  1  0  0  0  0  0  0  0  0  0
   -8.1630   -2.8700  -16.4710 C   0  0  0  0  0  0  0  0  0  0  0  0
   -4.7680   -1.5370  -18.0040 C   0  0  0  0  0  0  0  0  0  0  0  0
   -6.1340   -3.2470  -15.6830 C   0  0  0  0  0  0  0  0  0  0  0  0
   -6.6590   -0.7740  -20.0560 C   0  0  0  0  0  0  0  0  0  0  0  0
   -4.2780   -0.8300  -19.2460 C   0  0  0  0  0  0  0  0  0  0  0  0
   -9.5460   -2.4940  -17.3500 S   0  0  0  0  0  0  0  0  0  0  0  0
   -2.8200   -0.5590  -19.1320 N   0  0  0  0  0  0  0  0  0  0  0  0
   -7.0830   -3.9380  -14.8800 N   0  0  0  0  0  0  0  0  0  0  0  0
   -3.2250   -2.3510  -15.8530 C   0  0  0  0  0  0  0  0  0  0  0  0
   -5.2270   -0.4340  -20.3110 C   0  0  0  0  0  0  0  0  0  0  0  0
   -6.1830   -1.8550  -17.7590 C   0  0  0  0  0  0  0  0  0  0  0  0
   -1.0100   -1.4490  -15.8160 C   0  0  0  0  0  0  0  0  0  0  0  0
   -6.7340   -2.5950  -16.7110 C   0  0  0  0  0  0  0  0  0  0  0  0
   -8.2590   -3.6470  -15.3580 N   0  0  0  0  0  0  0  0  0  0  0  0
   -7.0110   -1.3790  -18.8170 C   0  0  0  0  0  0  0  0  0  0  0  0
   -1.9790   -2.1350  -15.2000 C   0  0  0  0  0  0  0  0  0  0  0  0
  1 15  1  0
  2 12  1  0
  3  1  1  1
  3  2  1  0
  4 17  1  0
  5 14  1  0
  5  2  2  0
  6 11  1  0
  7 18  1  0
  8 10  2  0
  8  5  1  0
  9  4  2  0
 10  3  1  0
 12 19  1  0
 13  7  2  0
 13  8  1  0
 14 16  1  0
 15 19  2  0
 16  4  1  0
 16  6  2  0
 17 11  2  0
 18 14  2  0
M  END
$$$$

     RDKit          3D

 19 22  0  0  0  0  0  0  0  0999 V2000
   -1.3760   -0.7440  -17.0010 C   0  0  0  0  0  0  0  0  0  0  0  0
   -3.6110   -1.7830  -17.0220 C   0  0  0  0  0  0  0  0  0  0  0  0
   -2.6450   -0.9790  -17.6010 C   0  0  0  0  0  0  0  0  0  0  0  0
   -8.1970   -2.9430  -16.4060 C   0  0  0  0  0  0  0  0  0  0  0  0
   -4.8300   -1.5220  -17.8380 C   0  0  0  0  0  0  0  0  0  0  0  0
   -6.0760   -3.2520  -15.5580 C   0  0  0  0  0  0  0  0  0  0  0  0
   -6.7030   -0.7860  -19.7990 N   0  0  0  0  0  0  0  0  0  0  0  0
   -4.4710   -0.7360  -18.8980 C   0  0  0  0  0  0  0  0  0  0  0  0
   -9.1690   -2.6250  -17.0080 O   0  0  0  0  0  0  0  0  0  0  0  0
   -3.1240   -0.4240  -18.7500 N   0  0  0  0  0  0  0  0  0  0  0  0
   -6.9640   -3.8410  -14.6880 N   0  0  0  0  0  0  0  0  0  0  0  0
   -3.3020   -2.5060  -15.9120 C   0  0  0  0  0  0  0  0  0  0  0  0
   -5.4490   -0.4290  -19.8430 C   0  0  0  0  0  0  0  0  0  0  0  0
   -6.2320   -1.9200  -17.7040 C   0  0  0  0  0  0  0  0  0  0  0  0
   -1.0880   -1.3810  -15.9150 C   0  0  0  0  0  0  0  0  0  0  0  0
   -6.7570   -2.6910  -16.6110 C   0  0  2  0  0  0  0  0  0  0  0  0
   -8.2530   -3.6850  -15.2480 N   0  0  0  0  0  0  0  0  0  0  0  0
   -7.1310   -1.4640  -18.7420 C   0  0  0  0  0  0  0  0  0  0  0  0
   -1.9980   -2.3000  -15.3290 C   0  0  0  0  0  0  0  0  0  0  0  0
  1 15  1  0
  2 12  1  0
  3  2  1  0
  3  1  2  0
  4 17  1  0
  5 14  1  0
  5  2  2  0
  6 11  2  0
  7 18  1  0
  8 10  2  0
  8  5  1  0
  9  4  2  0
 10  3  1  0
 12 19  2  0
 13  7  2  0
 13  8  1  0
 15 19  1  0
 16 14  1  1
 16  4  1  0
 16  6  1  0
 17 11  1  0
 18 14  2  0
M  END
$$$$

     RDKit          3D

 19 22  0  0  0  0  0  0  0  0999 V2000
   -1.1620   -1.2610  -17.0620 C   0  0  0  0  0  0  0  0  0  0  0  0
   -3.6430   -1.7820  -17.0370 C   0  0  0  0  0  0  0  0  0  0  0  0
   -2.4570   -1.3500  -17.7020 C   0  0  0  0  0  0  0  0  0  0  0  0
   -8.2730   -2.8590  -16.4890 N   0  0  0  0  0  0  0  0  0  0  0  0
   -4.8270   -1.6730  -17.8650 C   0  0  0  0  0  0  0  0  0  0  0  0
   -6.3420   -2.9540  -15.4550 N   0  0  0  0  0  0  0  0  0  0  0  0
   -6.6430   -0.7730  -19.9680 N   0  0  0  0  0  0  0  0  0  0  0  0
   -4.4950   -1.0560  -19.1270 C   0  0  0  0  0  0  0  0  0  0  0  0
   -9.3910   -2.5630  -17.3580 C   0  0  0  0  0  0  0  0  0  0  0  0
   -2.7650   -0.7420  -19.2990 S   0  0  0  0  0  0  0  0  0  0  0  0
   -7.3150   -3.5250  -14.6970 C   0  0  0  0  0  0  0  0  0  0  0  0
   -3.4890   -2.2660  -15.6810 C   0  0  0  0  0  0  0  0  0  0  0  0
   -5.3120   -0.6280  -20.1490 N   0  0  0  0  0  0  0  0  0  0  0  0
   -6.2540   -1.8460  -17.7570 C   0  0  0  0  0  0  0  0  0  0  0  0
   -1.0470   -1.7330  -15.6740 C   0  0  0  0  0  0  0  0  0  0  0  0
   -6.9350   -2.5000  -16.5710 C   0  0  0  0  0  0  0  0  0  0  0  0
   -8.4470   -3.4720  -15.2890 N   0  0  0  0  0  0  0  0  0  0  0  0
   -7.1030   -1.3300  -18.8470 C   0  0  0  0  0  0  0  0  0  0  0  0
   -2.2050   -2.2480  -15.0550 C   0  0  0  0  0  0  0  0  0  0  0  0
  1 15  2  0
  2 12  1  0
  3  1  1  0
  3  2  2  0
  4 17  1  0
  5 14  1  0
  5  2  1  0
  6 11  1  0
  7 18  1  0
  8  5  2  0
  9  4  1  0
 10  8  1  0
 10  3  1  0
 12 19  2  0
 13  7  2  0
 13  8  1  0
 14 16  1  0
 15 19  1  0
 16  4  1  0
 16  6  2  0
 17 11  2  0
 18 14  2  0
M  END
$$$$

     RDKit          3D

 19 22  0  0  0  0  0  0  0  0999 V2000
   -1.3680   -1.4050  -17.4280 C   0  0  0  0  0  0  0  0  0  0  0  0
   -3.7350   -1.8740  -17.1610 C   0  0  0  0  0  0  0  0  0  0  0  0
   -2.6790   -1.4150  -17.8430 C   0  0  0  0  0  0  0  0  0  0  0  0
   -8.3350   -2.9890  -16.6120 C   0  0  0  0  0  0  0  0  0  0  0  0
   -5.0120   -1.6270  -17.8930 C   0  0  1  0  0  0  0  0  0  0  0  0
   -6.3680   -3.0520  -15.5480 O   0  0  0  0  0  0  0  0  0  0  0  0
   -6.6930   -0.7860  -19.8490 C   0  0  0  0  0  0  0  0  0  0  0  0
   -4.5390   -1.0290  -19.0470 C   0  0  0  0  0  0  0  0  0  0  0  0
   -9.3030   -2.8170  -17.3660 O   0  0  0  0  0  0  0  0  0  0  0  0
   -3.1910   -0.8950  -19.0280 N   0  0  0  0  0  0  0  0  0  0  0  0
   -7.1760   -3.5840  -14.9140 N   0  0  0  0  0  0  0  0  0  0  0  0
   -3.4500   -2.4290  -15.8850 C   0  0  0  0  0  0  0  0  0  0  0  0
   -5.3730   -0.5700  -19.9750 N   0  0  0  0  0  0  0  0  0  0  0  0
   -6.4140   -1.8620  -17.8300 C   0  0  0  0  0  0  0  0  0  0  0  0
   -1.1130   -1.9720  -16.1460 C   0  0  0  0  0  0  0  0  0  0  0  0
   -7.0180   -2.5840  -16.7010 C   0  0  1  0  0  0  0  0  0  0  0  0
   -8.4710   -3.5610  -15.3740 N   0  0  0  0  0  0  0  0  0  0  0  0
   -7.1670   -1.3970  -18.7770 N   0  0  0  0  0  0  0  0  0  0  0  0
   -2.1630   -2.5440  -15.3950 C   0  0  0  0  0  0  0  0  0  0  0  0
  1 15  2  0
  2 12  1  0
  3  1  1  0
  3  2  2  0
  4 17  1  0
  5  8  1  0
  5 14  1  6
  5  2  1  0
  6 11  1  0
  7 18  1  0
  8 10  2  0
  9  4  2  0
 10  3  1  0
 12 19  2  0
 13  7  2  0
 13  8  1  0
 15 19  1  0
 16 14  1  6
 16  4  1  0
 16  6  1  0
 17 11  2  0
 18 14  2  0
M  END
$$$$

     RDKit          3D

 19 22  0  0  0  0  0  0  0  0999 V2000
   -1.3770   -0.7980  -16.8470 C   0  0  0  0  0  0  0  0  0  0  0  0
   -3.4740   -1.9010  -16.8390 C   0  0  0  0  0  0  0  0  0  0  0  0
   -2.4910   -1.1330  -17.4910 C   0  0  0  0  0  0  0  0  0  0  0  0
   -8.2050   -2.9360  -16.3840 C   0  0  0  0  0  0  0  0  0  0  0  0
   -4.7420   -1.6440  -17.7810 C   0  0  0  0  0  0  0  0  0  0  0  0
   -6.2710   -2.6490  -15.2750 C   0  0  0  0  0  0  0  0  0  0  0  0
   -6.5080   -0.8730  -19.9110 C   0  0  0  0  0  0  0  0  0  0  0  0
   -4.2740   -0.9160  -18.9460 C   0  0  0  0  0  0  0  0  0  0  0  0
   -9.4190   -2.9490  -17.1920 C   0  0  0  0  0  0  0  0  0  0  0  0
   -2.9610   -0.6120  -18.7050 N   0  0  0  0  0  0  0  0  0  0  0  0
   -7.0660   -3.4860  -14.5250 N   0  0  0  0  0  0  0  0  0  0  0  0
   -3.1090   -2.7460  -15.8330 C   0  0  0  0  0  0  0  0  0  0  0  0
   -5.2100   -0.5910  -19.9060 C   0  0  0  0  0  0  0  0  0  0  0  0
   -6.2110   -1.9270  -17.6970 C   0  0  0  0  0  0  0  0  0  0  0  0
   -0.9580   -1.6350  -15.7860 C   0  0  0  0  0  0  0  0  0  0  0  0
   -6.8730   -2.5420  -16.6110 C   0  0  0  0  0  0  0  0  0  0  0  0
   -8.2580   -3.5520  -15.1390 N   0  0  0  0  0  0  0  0  0  0  0  0
   -7.0020   -1.5510  -18.8020 C   0  0  0  0  0  0  0  0  0  0  0  0
   -1.8690   -2.5870  -15.3230 C   0  0  0  0  0  0  0  0  0  0  0  0
  1 15  1  0
  2 12  1  0
  3  1  2  0
  3  2  1  0
  4 17  1  0
  5 14  1  0
  5  2  2  0
  6 11  1  0
  7 13  2  0
  7 18  1  0
  8 10  2  0
  8  5  1  0
  9  4  1  0
 10  3  1  0
 12 19  2  0
 13  8  1  0
 14 16  1  0
 15 19  1  0
 16  4  2  0
 16  6  1  0
 17 11  1  0
 18 14  2  0
M  END
$$$$
