
     RDKit          3D

 21 24  0  0  0  0  0  0  0  0999 V2000
   -6.4390   -1.8480  -17.9160 C   0  0  0  0  0  0  0  0  0  0  0  0
   -2.6820   -2.2060  -17.0070 C   0  0  0  0  0  0  0  0  0  0  0  0
   -8.1880   -3.5950  -15.3220 C   0  0  0  0  0  0  0  0  0  0  0  0
   -4.0420   -1.9130  -17.6010 C   0  0  0  0  0  0  0  0  0  0  0  0
    0.8250   -0.6190  -17.9040 C   0  0  0  0  0  0  0  0  0  0  0  0
   -3.1240   -0.5890  -19.5710 C   0  0  0  0  0  0  0  0  0  0  0  0
   -1.6600   -1.2070  -17.6070 C   0  0  0  0  0  0  0  0  0  0  0  0
   -2.7670   -4.5380  -16.5740 C   0  0  0  0  0  0  0  0  0  0  0  0
   -7.2610   -2.9340  -16.2100 N   0  0  0  0  0  0  0  0  0  0  0  0
   -2.4650   -2.9020  -14.5330 C   0  0  0  0  0  0  0  0  0  0  0  0
   -8.7290   -2.1370  -17.8100 O   0  0  0  0  0  0  0  0  0  0  0  0
   -5.8930   -2.8150  -15.9230 C   0  0  0  0  0  0  0  0  0  0  0  0
   -4.2140   -1.1040  -18.7720 C   0  0  0  0  0  0  0  0  0  0  0  0
    0.4290    0.1260  -19.2090 C   0  0  0  0  0  0  0  0  0  0  0  0
   -7.6070   -2.3020  -17.3350 C   0  0  0  0  0  0  0  0  0  0  0  0
   -2.4620   -3.2240  -16.0950 N   0  0  0  0  0  0  0  0  0  0  0  0
   -5.9030   -0.8960  -19.2590 S   0  0  0  0  0  0  0  0  0  0  0  0
   -0.2140   -1.8680  -17.8710 C   0  0  0  0  0  0  0  0  0  0  0  0
   -0.7770   -0.4240  -19.8130 C   0  0  0  0  0  0  0  0  0  0  0  0
   -1.8280   -0.3540  -18.8520 N   0  0  0  0  0  0  0  0  0  0  0  0
   -5.3480   -2.2460  -17.1060 C   0  0  0  0  0  0  0  0  0  0  0  0
  1 15  1  0
  1 21  4  0
  2 16  1  0
  4 21  4  0
  4  2  1  0
  5 18  1  0
  6 20  1  0
  6 13  1  0
  7 18  1  0
  7  2  1  0
  8 16  1  0
  9 12  1  0
  9  3  1  0
 11 15  2  0
 13  4  4  0
 14  5  1  0
 15  9  1  0
 16 10  1  0
 17 13  4  0
 17  1  4  0
 19 14  1  0
 20 19  1  0
 20  7  1  0
 21 12  1  0
M  END
$$$$

     RDKit          3D

 21 24  0  0  0  0  0  0  0  0999 V2000
   -6.5630   -1.7480  -17.7770 C   0  0  0  0  0  0  0  0  0  0  0  0
   -2.7590   -1.9270  -17.0630 C   0  0  0  0  0  0  0  0  0  0  0  0
   -7.9580   -3.3980  -14.8910 C   0  0  0  0  0  0  0  0  0  0  0  0
   -4.1130   -1.7730  -17.5600 C   0  0  0  0  0  0  0  0  0  0  0  0
    0.6460   -0.6490  -18.1040 C   0  0  0  0  0  0  0  0  0  0  0  0
   -3.2420   -0.6470  -19.4260 N   0  0  0  0  0  0  0  0  0  0  0  0
   -1.5920   -1.2090  -17.7260 N   0  0  0  0  0  0  0  0  0  0  0  0
   -2.8800   -4.1800  -16.2100 O   0  0  0  0  0  0  0  0  0  0  0  0
   -7.2400   -2.7520  -16.0130 C   0  0  0  0  0  0  0  0  0  0  0  0
   -2.6620   -2.5550  -14.5260 C   0  0  0  0  0  0  0  0  0  0  0  0
   -9.1290   -1.8680  -17.4310 C   0  0  0  0  0  0  0  0  0  0  0  0
   -5.8860   -2.8310  -15.9200 N   0  0  0  0  0  0  0  0  0  0  0  0
   -4.3440   -1.1080  -18.7150 C   0  0  0  0  0  0  0  0  0  0  0  0
    0.1400    0.0200  -19.3360 N   0  0  0  0  0  0  0  0  0  0  0  0
   -7.7100   -2.1260  -17.1030 N   0  0  0  0  0  0  0  0  0  0  0  0
   -2.6850   -2.9670  -15.9590 C   0  0  0  0  0  0  0  0  0  0  0  0
   -5.9420   -0.8340  -19.1240 S   0  0  0  0  0  0  0  0  0  0  0  0
   -0.2300   -1.8760  -17.7860 C   0  0  0  0  0  0  0  0  0  0  0  0
   -1.0450   -0.5910  -19.9880 C   0  0  0  0  0  0  0  0  0  0  0  0
   -1.9880   -1.2930  -19.1890 C   0  0  0  0  0  0  0  0  0  0  0  0
   -5.5030   -2.1310  -17.0300 C   0  0  0  0  0  0  0  0  0  0  0  0
  1 15  4  0
  1 21  4  0
  2 16  1  0
  4  2  1  0
  4 21  4  0
  5 18  1  0
  6 20  1  0
  6 13  1  0
  7 18  1  0
  7  2  1  0
  8 16  2  0
  9 12  4  0
  9  3  1  0
 11 15  1  0
 13  4  4  0
 14  5  1  0
 15  9  4  0
 16 10  1  0
 17 13  4  0
 17  1  4  0
 19 14  1  0
 20 19  1  0
 20  7  1  0
 21 12  4  0
M  END
$$$$

     RDKit          3D

 21 24  0  0  0  0  0  0  0  0999 V2000
   -6.2480   -1.6580  -17.7840 C   0  0  0  0  0  0  0  0  0  0  0  0
   -2.6100   -2.1440  -17.2780 C   0  0  0  0  0  0  0  0  0  0  0  0
   -8.1200   -3.4410  -15.1480 C   0  0  0  0  0  0  0  0  0  0  0  0
   -3.9520   -1.9000  -17.6850 C   0  0  0  0  0  0  0  0  0  0  0  0
    0.5330   -0.5940  -17.6620 C   0  0  0  0  0  0  0  0  0  0  0  0
   -3.0120   -0.6650  -19.6410 C   0  0  0  0  0  0  0  0  0  0  0  0
   -1.5340   -1.6540  -18.0230 N   0  0  0  0  0  0  0  0  0  0  0  0
   -2.8940   -4.2250  -16.1660 N   0  0  0  0  0  0  0  0  0  0  0  0
   -7.2170   -2.7680  -16.0140 N   0  0  0  0  0  0  0  0  0  0  0  0
   -2.4240   -2.3040  -14.7670 C   0  0  0  0  0  0  0  0  0  0  0  0
   -8.8130   -1.3290  -17.4830 C   0  0  0  0  0  0  0  0  0  0  0  0
   -5.7750   -2.9860  -15.8530 C   0  0  0  0  0  0  0  0  0  0  0  0
   -4.0610   -1.1080  -18.8280 C   0  0  0  0  0  0  0  0  0  0  0  0
    0.6920   -0.4800  -19.0360 O   0  0  0  0  0  0  0  0  0  0  0  0
   -7.5510   -1.8810  -17.1020 C   0  0  0  0  0  0  0  0  0  0  0  0
   -2.5740   -2.9220  -16.0960 C   0  0  0  0  0  0  0  0  0  0  0  0
   -5.7510   -0.7900  -19.2150 S   0  0  0  0  0  0  0  0  0  0  0  0
   -0.2500   -1.7100  -17.2350 C   0  0  0  0  0  0  0  0  0  0  0  0
   -0.4840   -0.5120  -19.9170 C   0  0  0  0  0  0  0  0  0  0  0  0
   -1.6740   -1.0140  -19.1610 C   0  0  0  0  0  0  0  0  0  0  0  0
   -5.1070   -2.1870  -16.9730 C   0  0  0  0  0  0  0  0  0  0  0  0
  1 15  4  0
  1 21  4  0
  2 16  1  0
  4  2  1  0
  4 21  4  0
  5 18  1  0
  6 20  2  0
  6 13  1  0
  7  2  1  0
  7 18  1  0
  8 16  1  0
  9 12  4  0
  9  3  1  0
 11 15  1  0
 13  4  4  0
 14  5  1  0
 15  9  4  0
 16 10  1  0
 17 13  4  0
 17  1  4  0
 19 20  1  0
 19 14  1  0
 20  7  1  0
 21 12  4  0
M  END
$$$$

     RDKit          3D

 21 24  0  0  0  0  0  0  0  0999 V2000
   -6.2360   -1.8070  -18.0740 C   0  0  0  0  0  0  0  0  0  0  0  0
   -2.6770   -1.5400  -16.7850 C   0  0  0  0  0  0  0  0  0  0  0  0
   -8.3650   -3.1230  -15.3510 C   0  0  0  0  0  0  0  0  0  0  0  0
   -3.9400   -1.6310  -17.5290 C   0  0  0  0  0  0  0  0  0  0  0  0
    0.8020   -0.7110  -18.0380 C   0  0  0  0  0  0  0  0  0  0  0  0
   -3.0870   -0.7770  -19.6770 N   0  0  0  0  0  0  0  0  0  0  0  0
   -1.5990   -1.3580  -17.7460 C   0  0  0  0  0  0  0  0  0  0  0  0
   -2.4580   -4.2440  -16.6340 C   0  0  0  0  0  0  0  0  0  0  0  0
   -7.3660   -2.7000  -16.2240 N   0  0  0  0  0  0  0  0  0  0  0  0
   -2.1750   -2.7680  -14.5250 C   0  0  0  0  0  0  0  0  0  0  0  0
   -8.7200   -2.3750  -18.2820 C   0  0  0  0  0  0  0  0  0  0  0  0
   -6.0120   -2.5710  -15.8700 C   0  0  0  0  0  0  0  0  0  0  0  0
   -4.1910   -1.2150  -18.9130 C   0  0  0  0  0  0  0  0  0  0  0  0
    0.5000   -0.2750  -19.3650 C   0  0  0  0  0  0  0  0  0  0  0  0
   -7.4450   -2.2660  -17.5710 C   0  0  0  0  0  0  0  0  0  0  0  0
   -2.4790   -2.8120  -15.9700 C   0  0  0  0  0  0  0  0  0  0  0  0
   -5.5280   -1.2920  -19.0900 N   0  0  0  0  0  0  0  0  0  0  0  0
   -0.2270   -1.4980  -17.3250 C   0  0  0  0  0  0  0  0  0  0  0  0
   -0.7880   -0.5150  -19.9100 C   0  0  0  0  0  0  0  0  0  0  0  0
   -1.8230   -0.8640  -19.1000 C   0  0  0  0  0  0  0  0  0  0  0  0
   -5.2780   -2.0430  -17.0340 C   0  0  0  0  0  0  0  0  0  0  0  0
  1 15  4  0
  1 21  4  0
  2 16  1  0
  4 13  1  0
  4 21  1  0
  4  2  1  0
  5 18  4  0
  6 20  1  0
  6 13  2  0
  7 18  4  0
  7  2  1  0
  8 16  1  0
  9 12  4  0
  9  3  1  0
 11 15  1  0
 14  5  4  0
 15  9  4  0
 16 10  1  0
 17 13  1  0
 17  1  1  0
 19 14  4  0
 19 20  4  0
 20  7  4  0
 21 12  4  0
M  END
$$$$

     RDKit          3D

 21 24  0  0  0  0  0  0  0  0999 V2000
   -6.3650   -1.6330  -17.7820 C   0  0  0  0  0  0  0  0  0  0  0  0
   -2.7840   -1.8810  -16.8450 C   0  0  0  0  0  0  0  0  0  0  0  0
   -8.2220   -3.5210  -15.2780 C   0  0  0  0  0  0  0  0  0  0  0  0
   -4.1120   -1.7090  -17.4640 C   0  0  0  0  0  0  0  0  0  0  0  0
    0.3970   -1.0670  -17.5280 C   0  0  0  0  0  0  0  0  0  0  0  0
   -3.1130   -0.5700  -19.4440 N   0  0  0  0  0  0  0  0  0  0  0  0
   -1.6680   -1.7840  -17.8300 N   0  0  0  0  0  0  0  0  0  0  0  0
   -3.0130   -4.1380  -16.2800 O   0  0  0  0  0  0  0  0  0  0  0  0
   -7.2770   -2.8100  -16.1810 C   0  0  0  0  0  0  0  0  0  0  0  0
   -2.7570   -2.6100  -14.4690 C   0  0  0  0  0  0  0  0  0  0  0  0
   -8.9000   -1.4430  -17.7170 C   0  0  0  0  0  0  0  0  0  0  0  0
   -5.8230   -2.7640  -16.0470 C   0  0  0  0  0  0  0  0  0  0  0  0
   -4.2480   -0.9270  -18.7380 C   0  0  0  0  0  0  0  0  0  0  0  0
    0.3670   -0.3690  -18.8060 O   0  0  0  0  0  0  0  0  0  0  0  0
   -7.5360   -1.8860  -17.2700 C   0  0  0  0  0  0  0  0  0  0  0  0
   -2.4320   -2.9770  -15.8820 C   0  0  0  0  0  0  0  0  0  0  0  0
   -5.8560   -0.6970  -19.1150 S   0  0  0  0  0  0  0  0  0  0  0  0
   -0.4180   -2.3390  -17.6540 C   0  0  0  0  0  0  0  0  0  0  0  0
   -0.8090   -0.5730  -19.6590 C   0  0  0  0  0  0  0  0  0  0  0  0
   -1.9380   -1.4550  -19.2100 C   0  0  0  0  0  0  0  0  0  0  0  0
   -5.3340   -2.0820  -17.0960 N   0  0  0  0  0  0  0  0  0  0  0  0
  1 15  2  0
  1 21  1  0
  2 16  1  0
  4 21  1  0
  4  2  1  0
  6 20  1  0
  6 13  1  0
  7 18  1  0
  7  2  1  0
  8 16  1  0
  9 12  1  0
  9  3  1  0
 11 15  1  0
 13  4  2  0
 14  5  1  0
 15  9  1  0
 16 10  1  0
 17 13  1  0
 17  1  1  0
 18  5  1  0
 19 14  1  0
 20 19  1  0
 20  7  1  0
 21 12  1  0
M  END
$$$$

     RDKit          3D

 21 24  0  0  0  0  0  0  0  0999 V2000
   -6.3060   -1.8740  -17.7890 C   0  0  0  0  0  0  0  0  0  0  0  0
   -2.5300   -2.2150  -17.2500 C   0  0  0  0  0  0  0  0  0  0  0  0
   -8.0160   -3.6500  -15.0410 C   0  0  0  0  0  0  0  0  0  0  0  0
   -3.9300   -1.9630  -17.6240 C   0  0  0  0  0  0  0  0  0  0  0  0
    0.8580   -0.8390  -18.2030 C   0  0  0  0  0  0  0  0  0  0  0  0
   -3.2120   -0.6690  -19.5220 C   0  0  0  0  0  0  0  0  0  0  0  0
   -1.5350   -1.5630  -17.9460 C   0  0  0  0  0  0  0  0  0  0  0  0
   -2.5420   -4.4450  -16.5930 C   0  0  0  0  0  0  0  0  0  0  0  0
   -7.1110   -3.0670  -16.0620 N   0  0  0  0  0  0  0  0  0  0  0  0
   -2.4490   -2.6270  -14.7220 C   0  0  0  0  0  0  0  0  0  0  0  0
   -8.7850   -2.0180  -17.6890 O   0  0  0  0  0  0  0  0  0  0  0  0
   -5.7770   -3.0690  -16.0370 N   0  0  0  0  0  0  0  0  0  0  0  0
   -4.2070   -1.2170  -18.7760 C   0  0  0  0  0  0  0  0  0  0  0  0
    0.4530   -0.0990  -19.3870 C   0  0  0  0  0  0  0  0  0  0  0  0
   -7.5270   -2.3060  -17.2270 C   0  0  0  0  0  0  0  0  0  0  0  0
   -2.3170   -3.0680  -16.1950 N   0  0  0  0  0  0  0  0  0  0  0  0
   -5.8900   -0.9850  -19.1790 S   0  0  0  0  0  0  0  0  0  0  0  0
   -0.1240   -1.9330  -17.6870 C   0  0  0  0  0  0  0  0  0  0  0  0
   -0.8140   -0.1260  -19.8500 C   0  0  0  0  0  0  0  0  0  0  0  0
   -1.8940   -0.6110  -18.9450 C   0  0  0  0  0  0  0  0  0  0  0  0
   -5.1610   -2.3440  -17.0950 C   0  0  0  0  0  0  0  0  0  0  0  0
  1 15  4  0
  1 21  4  0
  2 16  1  0
  4  2  4  0
  4 21  4  0
  5 18  1  0
  6 20  4  0
  6 13  4  0
  7 18  1  0
  7  2  4  0
  8 16  1  0
  9 12  4  0
  9  3  1  0
 11 15  2  0
 13  4  4  0
 14  5  2  0
 15  9  4  0
 16 10  1  0
 17 13  4  0
 17  1  4  0
 19 14  1  0
 19 20  1  0
 20  7  4  0
 21 12  4  0
M  END
$$$$

     RDKit          3D

 21 24  0  0  0  0  0  0  0  0999 V2000
   -6.3960   -1.6810  -17.7500 C   0  0  0  0  0  0  0  0  0  0  0  0
   -2.8710   -1.8990  -17.1960 C   0  0  0  0  0  0  0  0  0  0  0  0
   -7.9050   -3.3460  -14.9870 C   0  0  0  0  0  0  0  0  0  0  0  0
   -4.0980   -1.7670  -17.5920 C   0  0  0  0  0  0  0  0  0  0  0  0
    0.5310   -0.5670  -17.9420 C   0  0  0  0  0  0  0  0  0  0  0  0
   -3.3830   -0.6010  -19.5260 N   0  0  0  0  0  0  0  0  0  0  0  0
   -1.6360   -1.2830  -17.8620 C   0  0  0  0  0  0  0  0  0  0  0  0
   -2.8220   -4.1050  -16.4500 O   0  0  0  0  0  0  0  0  0  0  0  0
   -7.0260   -2.7660  -15.9510 C   0  0  0  0  0  0  0  0  0  0  0  0
   -2.0810   -2.4670  -14.8180 C   0  0  0  0  0  0  0  0  0  0  0  0
   -8.9270   -1.8360  -17.4860 C   0  0  0  0  0  0  0  0  0  0  0  0
   -5.7180   -2.8460  -15.9660 N   0  0  0  0  0  0  0  0  0  0  0  0
   -4.3170   -1.0410  -18.8010 C   0  0  0  0  0  0  0  0  0  0  0  0
    0.4630    0.0210  -19.6220 S   0  0  0  0  0  0  0  0  0  0  0  0
   -7.4880   -2.0950  -17.0640 N   0  0  0  0  0  0  0  0  0  0  0  0
   -2.5430   -2.9050  -16.2170 C   0  0  0  0  0  0  0  0  0  0  0  0
   -6.0100   -0.7990  -19.2190 S   0  0  0  0  0  0  0  0  0  0  0  0
   -0.2500   -1.8860  -17.8320 C   0  0  0  0  0  0  0  0  0  0  0  0
   -1.1130   -0.3220  -20.1240 C   0  0  0  0  0  0  0  0  0  0  0  0
   -2.0840   -1.1420  -19.2620 C   0  0  0  0  0  0  0  0  0  0  0  0
   -5.3700   -2.0950  -17.0100 C   0  0  0  0  0  0  0  0  0  0  0  0
  1 15  4  0
  1 21  4  0
  2 16  1  0
  4  2  1  0
  4 21  4  0
  5 18  1  0
  6 20  1  0
  6 13  1  0
  7 18  1  0
  7  2  1  0
  8 16  2  0
  9  3  1  0
 11 15  1  0
 12  9  4  0
 13  4  4  0
 14  5  1  0
 15  9  4  0
 16 10  1  0
 17 13  4  0
 17  1  4  0
 19 14  1  0
 20 19  1  0
 20  7  1  0
 21 12  4  0
M  END
$$$$

     RDKit          3D

 21 24  0  0  0  0  0  0  0  0999 V2000
   -6.1950   -1.6620  -17.8900 C   0  0  0  0  0  0  0  0  0  0  0  0
   -2.6440   -2.1810  -17.0880 C   0  0  0  0  0  0  0  0  0  0  0  0
   -8.1920   -3.1950  -15.1360 C   0  0  0  0  0  0  0  0  0  0  0  0
   -3.8590   -1.9050  -17.5470 C   0  0  0  0  0  0  0  0  0  0  0  0
    0.4950   -0.4200  -17.5090 C   0  0  0  0  0  0  0  0  0  0  0  0
   -2.8340   -0.8180  -19.6220 C   0  0  0  0  0  0  0  0  0  0  0  0
   -1.5110   -1.6190  -17.7430 N   0  0  0  0  0  0  0  0  0  0  0  0
   -3.0570   -4.4240  -16.2360 N   0  0  0  0  0  0  0  0  0  0  0  0
   -7.2590   -2.6490  -16.1170 N   0  0  0  0  0  0  0  0  0  0  0  0
   -2.4980   -2.5980  -14.5870 C   0  0  0  0  0  0  0  0  0  0  0  0
   -8.7350   -1.4250  -17.8110 C   0  0  0  0  0  0  0  0  0  0  0  0
   -5.8680   -2.8050  -15.9250 C   0  0  0  0  0  0  0  0  0  0  0  0
   -3.9610   -1.2170  -18.8520 C   0  0  0  0  0  0  0  0  0  0  0  0
    0.4330    0.0330  -18.8540 O   0  0  0  0  0  0  0  0  0  0  0  0
   -7.4190   -1.9280  -17.2780 C   0  0  0  0  0  0  0  0  0  0  0  0
   -2.3260   -3.2160  -15.9790 C   0  0  0  0  0  0  0  0  0  0  0  0
   -5.5740   -0.8600  -19.3600 S   0  0  0  0  0  0  0  0  0  0  0  0
   -0.1840   -1.6370  -17.2080 C   0  0  0  0  0  0  0  0  0  0  0  0
   -0.3090   -0.7910  -19.7580 C   0  0  0  0  0  0  0  0  0  0  0  0
   -1.5240   -1.2600  -19.0780 C   0  0  0  0  0  0  0  0  0  0  0  0
   -5.2320   -2.1990  -17.0130 C   0  0  0  0  0  0  0  0  0  0  0  0
  1 15  4  0
  1 21  4  0
  2 16  1  0
  4  2  1  0
  4 21  4  0
  5 18  1  0
  6 20  1  0
  6 13  1  0
  7 18  1  0
  7  2  1  0
  8 16  1  0
  9 12  4  0
  9  3  1  0
 11 15  1  0
 13  4  4  0
 14  5  1  0
 15  9  4  0
 16 10  1  0
 17 13  4  0
 17  1  4  0
 19 14  1  0
 20 19  1  0
 20  7  1  0
 21 12  4  0
M  END
$$$$

     RDKit          3D

 21 24  0  0  0  0  0  0  0  0999 V2000
   -6.1710   -1.7140  -18.0370 C   0  0  0  0  0  0  0  0  0  0  0  0
   -2.6190   -1.6570  -16.7130 C   0  0  0  0  0  0  0  0  0  0  0  0
   -8.2030   -3.2150  -15.4560 C   0  0  0  0  0  0  0  0  0  0  0  0
   -3.9630   -1.5990  -17.4870 N   0  0  0  0  0  0  0  0  0  0  0  0
    0.8920   -1.2510  -18.1530 C   0  0  0  0  0  0  0  0  0  0  0  0
   -2.9540   -0.8210  -19.5620 N   0  0  0  0  0  0  0  0  0  0  0  0
   -1.4290   -1.2860  -17.6390 C   0  0  0  0  0  0  0  0  0  0  0  0
   -2.3200   -4.2150  -16.5510 C   0  0  0  0  0  0  0  0  0  0  0  0
   -7.2240   -2.6830  -16.3350 N   0  0  0  0  0  0  0  0  0  0  0  0
   -2.3100   -2.7690  -14.4820 C   0  0  0  0  0  0  0  0  0  0  0  0
   -8.5910   -2.2100  -18.3260 C   0  0  0  0  0  0  0  0  0  0  0  0
   -5.9040   -2.6200  -15.9080 C   0  0  0  0  0  0  0  0  0  0  0  0
   -4.0600   -1.1470  -18.7190 C   0  0  0  0  0  0  0  0  0  0  0  0
    0.6890   -0.9430  -19.3710 N   0  0  0  0  0  0  0  0  0  0  0  0
   -7.3280   -2.2440  -17.5120 C   0  0  0  0  0  0  0  0  0  0  0  0
   -2.5660   -2.9360  -15.9400 C   0  0  0  0  0  0  0  0  0  0  0  0
   -5.4910   -1.1520  -19.1320 N   0  0  0  0  0  0  0  0  0  0  0  0
   -0.1200   -1.0000  -17.0820 C   0  0  0  0  0  0  0  0  0  0  0  0
   -0.5790   -0.2420  -19.7600 C   0  0  0  0  0  0  0  0  0  0  0  0
   -1.7150   -0.7980  -19.0120 C   0  0  0  0  0  0  0  0  0  0  0  0
   -5.2080   -1.9590  -17.0240 C   0  0  0  0  0  0  0  0  0  0  0  0
  1 15  4  0
  1 21  4  0
  2 16  1  0
  4 21  1  0
  4  2  1  0
  5 18  1  0
  6 20  1  0
  6 13  2  0
  7 18  1  0
  7  2  1  0
  8 16  1  0
  9 12  4  0
  9  3  1  0
 11 15  1  0
 13  4  1  0
 14  5  2  0
 15  9  4  0
 16 10  1  0
 17 13  1  0
 17  1  1  0
 19 14  1  0
 19 20  1  0
 20  7  2  0
 21 12  4  0
M  END
$$$$

     RDKit          3D

 21 24  0  0  0  0  0  0  0  0999 V2000
   -6.2810   -1.6760  -17.8060 C   0  0  0  0  0  0  0  0  0  0  0  0
   -2.6850   -2.1650  -17.1790 C   0  0  0  0  0  0  0  0  0  0  0  0
   -8.1730   -3.3580  -15.2150 C   0  0  0  0  0  0  0  0  0  0  0  0
   -3.9210   -1.8170  -17.5540 C   0  0  0  0  0  0  0  0  0  0  0  0
    0.5930   -0.9010  -17.6070 C   0  0  0  0  0  0  0  0  0  0  0  0
   -3.0330   -0.8490  -19.4960 N   0  0  0  0  0  0  0  0  0  0  0  0
   -1.6990   -1.6530  -17.8520 C   0  0  0  0  0  0  0  0  0  0  0  0
   -2.9740   -4.3000  -16.2620 O   0  0  0  0  0  0  0  0  0  0  0  0
   -7.2220   -2.6410  -16.1070 C   0  0  0  0  0  0  0  0  0  0  0  0
   -2.7280   -2.5050  -14.5650 C   0  0  0  0  0  0  0  0  0  0  0  0
   -8.6720   -1.4180  -17.8720 C   0  0  0  0  0  0  0  0  0  0  0  0
   -5.8730   -2.7870  -15.8830 C   0  0  0  0  0  0  0  0  0  0  0  0
   -4.0880   -1.2330  -18.7540 C   0  0  0  0  0  0  0  0  0  0  0  0
    0.4290   -0.0780  -18.8380 N   0  0  0  0  0  0  0  0  0  0  0  0
   -7.5010   -1.9670  -17.2730 N   0  0  0  0  0  0  0  0  0  0  0  0
   -2.4780   -3.0440  -15.9900 C   0  0  0  0  0  0  0  0  0  0  0  0
   -5.8160   -0.9090  -19.2560 S   0  0  0  0  0  0  0  0  0  0  0  0
   -0.1890   -2.1460  -17.6810 C   0  0  0  0  0  0  0  0  0  0  0  0
   -0.5140   -0.6710  -19.8070 C   0  0  0  0  0  0  0  0  0  0  0  0
   -1.8050   -1.1190  -19.0870 C   0  0  0  0  0  0  0  0  0  0  0  0
   -5.2340   -2.1230  -16.9880 C   0  0  0  0  0  0  0  0  0  0  0  0
  1 15  4  0
  1 21  4  0
  2 16  1  0
  4  2  4  0
  4 21  4  0
  6 20  4  0
  6 13  4  0
  7 18  1  0
  7  2  4  0
  8 16  1  0
  9 12  4  0
  9  3  1  0
 11 15  1  0
 13  4  4  0
 14  5  1  0
 15  9  4  0
 16 10  1  0
 17 13  4  0
 17  1  4  0
 18  5  1  0
 19 20  1  0
 19 14  1  0
 20  7  4  0
 21 12  4  0
M  END
$$$$

     RDKit          3D

 21 24  0  0  0  0  0  0  0  0999 V2000
   -6.3680   -1.8550  -17.8800 C   0  0  0  0  0  0  0  0  0  0  0  0
   -2.7110   -2.2230  -17.2440 C   0  0  0  0  0  0  0  0  0  0  0  0
   -8.3440   -3.5330  -15.0460 Cl  0  0  0  0  0  0  0  0  0  0  0  0
   -4.0830   -2.0000  -17.6270 C   0  0  0  0  0  0  0  0  0  0  0  0
    0.7340   -0.7820  -18.0630 C   0  0  0  0  0  0  0  0  0  0  0  0
   -3.2880   -0.3990  -19.4330 C   0  0  0  0  0  0  0  0  0  0  0  0
   -1.5310   -1.6440  -18.0430 C   0  0  0  0  0  0  0  0  0  0  0  0
   -2.6220   -4.4970  -16.5400 C   0  0  0  0  0  0  0  0  0  0  0  0
   -7.3070   -2.8590  -16.1750 N   0  0  0  0  0  0  0  0  0  0  0  0
   -2.6870   -2.7800  -14.7900 C   0  0  0  0  0  0  0  0  0  0  0  0
   -8.7960   -2.0330  -17.7230 O   0  0  0  0  0  0  0  0  0  0  0  0
   -5.8380   -2.9600  -15.9220 C   0  0  0  0  0  0  0  0  0  0  0  0
   -4.2860   -1.1570  -18.6640 C   0  0  0  0  0  0  0  0  0  0  0  0
    0.5090   -0.2200  -19.4470 C   0  0  0  0  0  0  0  0  0  0  0  0
   -7.6330   -2.1910  -17.3420 C   0  0  0  0  0  0  0  0  0  0  0  0
   -2.3410   -3.0770  -16.1760 N   0  0  0  0  0  0  0  0  0  0  0  0
   -5.8970   -0.9140  -19.2840 S   0  0  0  0  0  0  0  0  0  0  0  0
   -0.1370   -2.0630  -17.8700 C   0  0  0  0  0  0  0  0  0  0  0  0
   -0.9420    0.0610  -19.7810 C   0  0  0  0  0  0  0  0  0  0  0  0
   -1.9450   -0.3750  -18.7790 C   0  0  0  0  0  0  0  0  0  0  0  0
   -5.3390   -2.2960  -17.0440 C   0  0  0  0  0  0  0  0  0  0  0  0
  1 17  1  0
  1 15  1  0
  1 21  1  0
  2 16  1  0
  4  2  1  0
  4 21  1  0
  5 18  1  0
  6 20  1  0
  6 13  1  0
  7 18  1  0
  7  2  1  0
  8 16  1  0
  9 12  1  0
  9  3  1  0
 11 15  2  0
 13  4  2  0
 14  5  1  0
 15  9  1  0
 16 10  1  0
 17 13  1  0
 19 14  1  0
 20 19  1  0
 20  7  1  0
 21 12  2  0
M  END
$$$$

     RDKit          3D

 21 24  0  0  0  0  0  0  0  0999 V2000
   -6.3730   -1.7800  -17.7490 C   0  0  0  0  0  0  0  0  0  0  0  0
   -2.6000   -2.0850  -17.1700 C   0  0  0  0  0  0  0  0  0  0  0  0
   -7.9800   -3.4530  -15.0320 N   0  0  0  0  0  0  0  0  0  0  0  0
   -3.9620   -1.9080  -17.5980 C   0  0  0  0  0  0  0  0  0  0  0  0
    0.7110   -0.8140  -17.7540 C   0  0  0  0  0  0  0  0  0  0  0  0
   -3.1000   -0.7070  -19.4970 N   0  0  0  0  0  0  0  0  0  0  0  0
   -1.5380   -1.4290  -17.8640 N   0  0  0  0  0  0  0  0  0  0  0  0
   -2.8010   -4.2590  -16.4770 O   0  0  0  0  0  0  0  0  0  0  0  0
   -7.1750   -2.8780  -15.9570 C   0  0  0  0  0  0  0  0  0  0  0  0
   -2.2180   -2.5500  -14.7350 C   0  0  0  0  0  0  0  0  0  0  0  0
   -8.9370   -1.9240  -17.6090 C   0  0  0  0  0  0  0  0  0  0  0  0
   -5.7880   -2.8820  -15.9610 N   0  0  0  0  0  0  0  0  0  0  0  0
   -4.1190   -1.2090  -18.7480 C   0  0  0  0  0  0  0  0  0  0  0  0
    0.7110   -0.0170  -19.4270 S   0  0  0  0  0  0  0  0  0  0  0  0
   -7.5700   -2.1810  -17.0950 N   0  0  0  0  0  0  0  0  0  0  0  0
   -2.2250   -3.0250  -16.1010 N   0  0  0  0  0  0  0  0  0  0  0  0
   -5.8760   -0.9190  -19.2150 S   0  0  0  0  0  0  0  0  0  0  0  0
   -0.2040   -2.0480  -17.7190 C   0  0  0  0  0  0  0  0  0  0  0  0
   -0.9370   -0.1590  -20.0260 C   0  0  0  0  0  0  0  0  0  0  0  0
   -1.8610   -0.9410  -19.1220 C   0  0  0  0  0  0  0  0  0  0  0  0
   -5.2810   -2.2010  -17.0320 C   0  0  0  0  0  0  0  0  0  0  0  0
  1 15  4  0
  1 21  4  0
  2 16  1  0
  4  2  1  0
  4 21  4  0
  5 18  1  0
  6 20  2  0
  6 13  1  0
  7 18  1  0
  7  2  1  0
  8 16  1  0
  9  3  1  0
 11 15  1  0
 12  9  4  0
 13  4  4  0
 14  5  1  0
 15  9  4  0
 16 10  1  0
 17 13  4  0
 17  1  4  0
 19 14  1  0
 19 20  1  0
 20  7  1  0
 21 12  4  0
M  END
$$$$

     RDKit          3D

 21 24  0  0  0  0  0  0  0  0999 V2000
   -6.3000   -1.6950  -17.8340 C   0  0  0  0  0  0  0  0  0  0  0  0
   -2.7630   -2.2400  -17.1480 C   0  0  0  0  0  0  0  0  0  0  0  0
   -8.2700   -3.3880  -15.1780 C   0  0  0  0  0  0  0  0  0  0  0  0
   -4.0530   -1.9210  -17.6890 C   0  0  0  0  0  0  0  0  0  0  0  0
    0.6440   -0.8000  -17.5670 C   0  0  0  0  0  0  0  0  0  0  0  0
   -3.0380   -0.6940  -19.5870 C   0  0  0  0  0  0  0  0  0  0  0  0
   -1.6590   -1.6100  -17.7430 N   0  0  0  0  0  0  0  0  0  0  0  0
   -2.9420   -4.3480  -16.1990 O   0  0  0  0  0  0  0  0  0  0  0  0
   -7.2980   -2.7360  -16.1630 N   0  0  0  0  0  0  0  0  0  0  0  0
   -2.6040   -2.5820  -14.6250 C   0  0  0  0  0  0  0  0  0  0  0  0
   -8.7120   -1.1830  -17.7660 C   0  0  0  0  0  0  0  0  0  0  0  0
   -5.9150   -2.9010  -16.0680 C   0  0  0  0  0  0  0  0  0  0  0  0
   -4.1840   -1.1550  -18.8210 C   0  0  0  0  0  0  0  0  0  0  0  0
    0.5010   -0.1510  -18.8600 C   0  0  0  0  0  0  0  0  0  0  0  0
   -7.4410   -1.9030  -17.2010 C   0  0  0  0  0  0  0  0  0  0  0  0
   -2.7410   -3.1620  -16.0170 C   0  0  0  0  0  0  0  0  0  0  0  0
   -5.7720   -1.0260  -19.1790 S   0  0  0  0  0  0  0  0  0  0  0  0
   -0.4120   -1.7840  -17.0580 C   0  0  0  0  0  0  0  0  0  0  0  0
   -0.4510   -0.9390  -19.7890 C   0  0  0  0  0  0  0  0  0  0  0  0
   -1.8060   -1.0720  -18.9940 C   0  0  0  0  0  0  0  0  0  0  0  0
   -5.2720   -2.3310  -17.0940 C   0  0  0  0  0  0  0  0  0  0  0  0
  1 15  4  0
  1 21  4  0
  2 16  1  0
  4  2  1  0
  4 21  4  0
  5 18  1  0
  6 20  2  0
  6 13  1  0
  7  2  1  0
  7 18  1  0
  8 16  2  0
  9 12  4  0
  9  3  1  0
 11 15  1  0
 13  4  4  0
 14  5  1  0
 15  9  4  0
 16 10  1  0
 17 13  4  0
 17  1  4  0
 19 20  1  0
 19 14  1  0
 20  7  1  0
 21 12  4  0
M  END
$$$$

     RDKit          3D

 21 24  0  0  0  0  0  0  0  0999 V2000
   -6.0170   -1.7370  -17.9140 C   0  0  0  0  0  0  0  0  0  0  0  0
   -2.4810   -1.6070  -16.7960 C   0  0  0  0  0  0  0  0  0  0  0  0
   -8.1110   -3.4210  -15.5010 C   0  0  0  0  0  0  0  0  0  0  0  0
   -3.8450   -1.6280  -17.4120 N   0  0  0  0  0  0  0  0  0  0  0  0
    0.9490   -0.9260  -18.4170 C   0  0  0  0  0  0  0  0  0  0  0  0
   -3.0330   -0.5290  -19.5100 N   0  0  0  0  0  0  0  0  0  0  0  0
   -1.3500   -1.4070  -17.8440 C   0  0  0  0  0  0  0  0  0  0  0  0
   -2.5290   -4.2390  -16.5790 C   0  0  0  0  0  0  0  0  0  0  0  0
   -7.0650   -2.7540  -16.2370 N   0  0  0  0  0  0  0  0  0  0  0  0
   -2.0490   -2.6260  -14.5670 C   0  0  0  0  0  0  0  0  0  0  0  0
   -8.3880   -2.1970  -18.1420 C   0  0  0  0  0  0  0  0  0  0  0  0
   -5.7270   -2.6720  -15.8580 C   0  0  0  0  0  0  0  0  0  0  0  0
   -4.0620   -1.0960  -18.6970 C   0  0  0  0  0  0  0  0  0  0  0  0
    0.6300   -0.2000  -19.4220 C   0  0  0  0  0  0  0  0  0  0  0  0
   -7.2490   -2.1750  -17.4420 C   0  0  0  0  0  0  0  0  0  0  0  0
   -2.4300   -2.9190  -16.0070 C   0  0  0  0  0  0  0  0  0  0  0  0
   -5.3850   -1.1380  -18.9890 N   0  0  0  0  0  0  0  0  0  0  0  0
   -0.0020   -1.4200  -17.4490 C   0  0  0  0  0  0  0  0  0  0  0  0
   -0.7290   -0.2540  -19.9100 C   0  0  0  0  0  0  0  0  0  0  0  0
   -1.7010   -0.8010  -19.0940 C   0  0  0  0  0  0  0  0  0  0  0  0
   -5.0730   -2.0530  -16.9730 C   0  0  0  0  0  0  0  0  0  0  0  0
  1 15  4  0
  1 21  4  0
  2 16  1  0
  4 21  1  0
  4  2  1  0
  5 18  4  0
  6 20  1  0
  6 13  2  0
  7 18  4  0
  7  2  1  0
  8 16  1  0
  9 12  4  0
  9  3  1  0
 11 15  1  0
 13  4  1  0
 14  5  4  0
 15  9  4  0
 16 10  1  0
 17 13  1  0
 17  1  1  0
 19 14  4  0
 19 20  4  0
 20  7  4  0
 21 12  4  0
M  END
$$$$

     RDKit          3D

 21 24  0  0  0  0  0  0  0  0999 V2000
   -6.3010   -1.6250  -17.8680 C   0  0  0  0  0  0  0  0  0  0  0  0
   -2.7520   -2.1550  -17.1890 C   0  0  0  0  0  0  0  0  0  0  0  0
   -8.0200   -3.3330  -15.2090 C   0  0  0  0  0  0  0  0  0  0  0  0
   -4.0340   -1.7990  -17.6540 C   0  0  0  0  0  0  0  0  0  0  0  0
    0.4380   -0.9880  -17.4520 C   0  0  0  0  0  0  0  0  0  0  0  0
   -3.0710   -0.5850  -19.4620 C   0  0  0  0  0  0  0  0  0  0  0  0
   -1.7210   -1.7090  -17.9180 N   0  0  0  0  0  0  0  0  0  0  0  0
   -3.0570   -4.3190  -16.2990 O   0  0  0  0  0  0  0  0  0  0  0  0
   -7.1360   -2.6340  -16.1650 C   0  0  0  0  0  0  0  0  0  0  0  0
   -2.5940   -2.6090  -14.6450 C   0  0  0  0  0  0  0  0  0  0  0  0
   -8.7920   -1.5880  -17.8010 C   0  0  0  0  0  0  0  0  0  0  0  0
   -5.7310   -2.6950  -16.0020 C   0  0  0  0  0  0  0  0  0  0  0  0
   -4.1440   -1.0500  -18.7890 C   0  0  0  0  0  0  0  0  0  0  0  0
    0.4940   -0.3040  -18.7380 N   0  0  0  0  0  0  0  0  0  0  0  0
   -7.4350   -1.9680  -17.2990 N   0  0  0  0  0  0  0  0  0  0  0  0
   -2.4180   -3.1130  -16.0670 C   0  0  0  0  0  0  0  0  0  0  0  0
   -5.8360   -0.7420  -19.2760 S   0  0  0  0  0  0  0  0  0  0  0  0
   -0.3410   -2.2060  -17.7260 C   0  0  0  0  0  0  0  0  0  0  0  0
   -0.5450   -0.6580  -19.7450 C   0  0  0  0  0  0  0  0  0  0  0  0
   -1.8020   -0.9930  -19.0410 C   0  0  0  0  0  0  0  0  0  0  0  0
   -5.3040   -2.0940  -17.1440 N   0  0  0  0  0  0  0  0  0  0  0  0
  1 17  1  0
  1 15  1  0
  1 21  1  0
  2 16  1  0
  4  2  1  0
  4 21  1  0
  6 20  2  0
  6 13  1  0
  7 18  1  0
  7  2  1  0
  8 16  1  0
  9 12  2  0
  9  3  1  0
 11 15  1  0
 13  4  2  0
 14  5  1  0
 15  9  1  0
 16 10  1  0
 17 13  1  0
 18  5  1  0
 19 20  1  0
 19 14  1  0
 20  7  1  0
 21 12  1  0
M  END
$$$$

     RDKit          3D

 21 24  0  0  0  0  0  0  0  0999 V2000
   -6.2670   -1.7130  -17.8630 C   0  0  0  0  0  0  0  0  0  0  0  0
   -2.7130   -2.1550  -17.1140 C   0  0  0  0  0  0  0  0  0  0  0  0
   -8.1780   -3.3710  -15.3220 C   0  0  0  0  0  0  0  0  0  0  0  0
   -4.0160   -1.9900  -17.4990 C   0  0  0  0  0  0  0  0  0  0  0  0
    0.7450   -0.5820  -17.9560 C   0  0  0  0  0  0  0  0  0  0  0  0
   -3.2050   -0.5400  -19.3840 C   0  0  0  0  0  0  0  0  0  0  0  0
   -1.6500   -1.3990  -17.7640 C   0  0  0  0  0  0  0  0  0  0  0  0
   -2.1540   -4.3910  -16.3940 C   0  0  0  0  0  0  0  0  0  0  0  0
   -7.3040   -2.8370  -16.1230 N   0  0  0  0  0  0  0  0  0  0  0  0
   -2.4570   -2.6310  -14.5800 C   0  0  0  0  0  0  0  0  0  0  0  0
   -8.7700   -2.0330  -17.7070 O   0  0  0  0  0  0  0  0  0  0  0  0
   -5.8050   -2.9790  -15.8990 C   0  0  0  0  0  0  0  0  0  0  0  0
   -4.2590   -1.1130  -18.6710 C   0  0  0  0  0  0  0  0  0  0  0  0
    0.5480   -0.6030  -19.4950 C   0  0  0  0  0  0  0  0  0  0  0  0
   -7.5470   -2.1550  -17.2250 C   0  0  0  0  0  0  0  0  0  0  0  0
   -2.4590   -2.9850  -16.0100 C   0  0  0  0  0  0  0  0  0  0  0  0
   -5.6120   -1.0640  -18.8760 C   0  0  0  0  0  0  0  0  0  0  0  0
   -0.2610   -1.7550  -17.6410 C   0  0  0  0  0  0  0  0  0  0  0  0
   -0.8900   -0.3780  -19.9540 C   0  0  0  0  0  0  0  0  0  0  0  0
   -1.9520   -0.6490  -18.8480 N   0  0  0  0  0  0  0  0  0  0  0  0
   -5.2730   -2.3310  -17.0740 C   0  0  0  0  0  0  0  0  0  0  0  0
  1 15  1  0
  1 21  4  0
  2 16  1  0
  4  2  4  0
  4 21  4  0
  5 18  1  0
  6 20  4  0
  6 13  4  0
  7 18  1  0
  7  2  4  0
  8 16  1  0
  9 12  1  0
  9  3  1  0
 11 15  2  0
 13  4  1  0
 14  5  1  0
 15  9  1  0
 16 10  1  0
 17 13  4  0
 17  1  4  0
 19 14  1  0
 19 20  1  0
 20  7  4  0
 21 12  1  0
M  END
$$$$

     RDKit          3D

 21 24  0  0  0  0  0  0  0  0999 V2000
   -6.3230   -1.6340  -17.8270 C   0  0  0  0  0  0  0  0  0  0  0  0
   -2.6550   -1.8160  -16.9180 C   0  0  0  0  0  0  0  0  0  0  0  0
   -8.1720   -3.3980  -15.2090 C   0  0  0  0  0  0  0  0  0  0  0  0
   -4.0120   -1.8490  -17.4070 C   0  0  0  0  0  0  0  0  0  0  0  0
    0.8200   -1.1870  -18.1120 C   0  0  0  0  0  0  0  0  0  0  0  0
   -3.3110   -0.7380  -19.4670 O   0  0  0  0  0  0  0  0  0  0  0  0
   -1.5620   -1.4000  -17.8540 C   0  0  0  0  0  0  0  0  0  0  0  0
   -2.9420   -4.1260  -16.3930 O   0  0  0  0  0  0  0  0  0  0  0  0
   -7.2520   -2.6620  -16.1660 C   0  0  0  0  0  0  0  0  0  0  0  0
   -2.7510   -2.3530  -14.8060 C   0  0  0  0  0  0  0  0  0  0  0  0
   -8.9000   -1.5440  -17.7540 C   0  0  0  0  0  0  0  0  0  0  0  0
   -5.9030   -2.8410  -16.0250 N   0  0  0  0  0  0  0  0  0  0  0  0
   -4.2400   -1.1200  -18.6790 C   0  0  0  0  0  0  0  0  0  0  0  0
    0.5140   -0.0970  -19.4750 S   0  0  0  0  0  0  0  0  0  0  0  0
   -7.5830   -1.9720  -17.2000 N   0  0  0  0  0  0  0  0  0  0  0  0
   -2.4170   -2.9450  -16.0080 C   0  0  0  0  0  0  0  0  0  0  0  0
   -5.8570   -0.7570  -19.2280 S   0  0  0  0  0  0  0  0  0  0  0  0
   -0.3150   -1.9390  -17.7170 C   0  0  0  0  0  0  0  0  0  0  0  0
   -1.0520   -0.3220  -19.8310 C   0  0  0  0  0  0  0  0  0  0  0  0
   -1.9240   -0.8220  -18.9560 C   0  0  0  0  0  0  0  0  0  0  0  0
   -5.3380   -2.1900  -16.9830 C   0  0  0  0  0  0  0  0  0  0  0  0
  1 15  4  0
  1 21  4  0
  2 16  1  0
  4 21  1  0
  4  2  2  0
  5 18  1  0
  6 20  1  0
  7 18  1  0
  7  2  1  0
  8 16  1  0
  9 12  4  0
  9  3  1  0
 11 15  1  0
 13  6  1  0
 13  4  1  0
 14  5  1  0
 15  9  4  0
 16 10  1  0
 17 13  1  0
 17  1  1  0
 19 14  1  0
 19 20  1  0
 20  7  2  0
 21 12  4  0
M  END
$$$$

     RDKit          3D

 21 24  0  0  0  0  0  0  0  0999 V2000
   -6.2750   -1.6500  -17.7650 C   0  0  0  0  0  0  0  0  0  0  0  0
   -2.7150   -2.0870  -17.1970 C   0  0  0  0  0  0  0  0  0  0  0  0
   -8.0420   -3.3360  -15.0890 C   0  0  0  0  0  0  0  0  0  0  0  0
   -3.9910   -1.8350  -17.6420 C   0  0  0  0  0  0  0  0  0  0  0  0
    0.4690   -0.5790  -17.4310 C   0  0  0  0  0  0  0  0  0  0  0  0
   -2.9060   -0.7270  -19.5610 C   0  0  0  0  0  0  0  0  0  0  0  0
   -1.6140   -1.6780  -17.8740 N   0  0  0  0  0  0  0  0  0  0  0  0
   -2.8600   -4.1340  -16.4200 O   0  0  0  0  0  0  0  0  0  0  0  0
   -7.1160   -2.7180  -16.1240 N   0  0  0  0  0  0  0  0  0  0  0  0
   -2.1850   -2.4450  -14.8270 C   0  0  0  0  0  0  0  0  0  0  0  0
   -8.5760   -1.1960  -17.4950 C   0  0  0  0  0  0  0  0  0  0  0  0
   -5.7820   -2.9000  -16.0120 C   0  0  0  0  0  0  0  0  0  0  0  0
   -4.0490   -1.1510  -18.8220 C   0  0  0  0  0  0  0  0  0  0  0  0
    0.3870   -0.0110  -18.7060 C   0  0  0  0  0  0  0  0  0  0  0  0
   -7.3880   -1.9020  -17.1100 N   0  0  0  0  0  0  0  0  0  0  0  0
   -2.4810   -2.8460  -16.1350 N   0  0  0  0  0  0  0  0  0  0  0  0
   -5.6650   -0.9780  -19.2810 S   0  0  0  0  0  0  0  0  0  0  0  0
   -0.2870   -1.8860  -17.4160 C   0  0  0  0  0  0  0  0  0  0  0  0
   -0.3750   -0.7970  -19.7300 C   0  0  0  0  0  0  0  0  0  0  0  0
   -1.6740   -1.1250  -19.1090 C   0  0  0  0  0  0  0  0  0  0  0  0
   -5.2660   -2.1620  -17.0850 C   0  0  0  0  0  0  0  0  0  0  0  0
  1 17  1  0
  1 15  1  0
  1 21  1  0
  2 16  1  0
  4  2  1  0
  4 21  1  0
  5 18  1  0
  6 20  2  0
  6 13  1  0
  7 18  1  0
  7  2  1  0
  8 16  1  0
  9 12  1  0
  9  3  1  0
 11 15  1  0
 13  4  2  0
 14  5  1  0
 15  9  1  0
 16 10  1  0
 17 13  1  0
 19 20  1  0
 19 14  1  0
 20  7  1  0
 21 12  2  0
M  END
$$$$

     RDKit          3D

 21 24  0  0  0  0  0  0  0  0999 V2000
   -6.1220   -1.7190  -18.0540 C   0  0  0  0  0  0  0  0  0  0  0  0
   -2.6250   -1.6950  -16.8190 C   0  0  0  0  0  0  0  0  0  0  0  0
   -8.1350   -3.3020  -15.3980 C   0  0  0  0  0  0  0  0  0  0  0  0
   -3.9450   -1.6160  -17.5040 C   0  0  0  0  0  0  0  0  0  0  0  0
    0.9020   -1.1350  -18.1860 C   0  0  0  0  0  0  0  0  0  0  0  0
   -2.9870   -0.6790  -19.4960 N   0  0  0  0  0  0  0  0  0  0  0  0
   -1.5000   -1.3420  -17.7800 C   0  0  0  0  0  0  0  0  0  0  0  0
   -2.2950   -4.2550  -16.7080 C   0  0  0  0  0  0  0  0  0  0  0  0
   -7.1260   -2.7300  -16.3400 N   0  0  0  0  0  0  0  0  0  0  0  0
   -2.0990   -2.8850  -14.5620 C   0  0  0  0  0  0  0  0  0  0  0  0
   -8.5350   -2.2280  -18.3120 C   0  0  0  0  0  0  0  0  0  0  0  0
   -5.7790   -2.7220  -15.9280 C   0  0  0  0  0  0  0  0  0  0  0  0
   -4.1260   -1.1080  -18.7900 C   0  0  0  0  0  0  0  0  0  0  0  0
    0.6430   -0.5440  -19.3900 C   0  0  0  0  0  0  0  0  0  0  0  0
   -7.3200   -2.2060  -17.5700 N   0  0  0  0  0  0  0  0  0  0  0  0
   -2.6170   -2.9270  -15.9160 C   0  0  0  0  0  0  0  0  0  0  0  0
   -5.4360   -1.1570  -19.1180 C   0  0  0  0  0  0  0  0  0  0  0  0
   -0.1240   -1.8430  -17.5410 C   0  0  0  0  0  0  0  0  0  0  0  0
   -0.6590   -0.1860  -19.7010 C   0  0  0  0  0  0  0  0  0  0  0  0
   -1.7240   -0.7180  -18.9480 C   0  0  0  0  0  0  0  0  0  0  0  0
   -5.1700   -2.0530  -17.0160 C   0  0  0  0  0  0  0  0  0  0  0  0
  1 15  4  0
  1 21  1  0
  2 16  1  0
  4 21  4  0
  4  2  4  0
  5 18  4  0
  6 20  4  0
  6 13  4  0
  7 18  4  0
  7  2  4  0
  8 16  1  0
  9 12  4  0
  9  3  1  0
 11 15  1  0
 13  4  4  0
 14  5  4  0
 15  9  4  0
 16 10  1  0
 17 13  4  0
 17  1  4  0
 19 14  4  0
 19 20  4  0
 20  7  4  0
 21 12  4  0
M  END
$$$$

     RDKit          3D

 21 24  0  0  0  0  0  0  0  0999 V2000
   -6.3510   -1.6220  -17.8010 C   0  0  0  0  0  0  0  0  0  0  0  0
   -2.7770   -1.9680  -17.2500 C   0  0  0  0  0  0  0  0  0  0  0  0
   -8.0290   -3.2880  -15.1530 C   0  0  0  0  0  0  0  0  0  0  0  0
   -4.0720   -1.7330  -17.6190 C   0  0  0  0  0  0  0  0  0  0  0  0
    0.3940   -0.8780  -17.7270 C   0  0  0  0  0  0  0  0  0  0  0  0
   -3.0570   -0.8540  -19.4890 C   0  0  0  0  0  0  0  0  0  0  0  0
   -1.7940   -1.6670  -17.8990 N   0  0  0  0  0  0  0  0  0  0  0  0
   -2.7850   -4.1490  -16.3670 O   0  0  0  0  0  0  0  0  0  0  0  0
   -7.2900   -2.6860  -16.1130 C   0  0  0  0  0  0  0  0  0  0  0  0
   -2.4860   -2.6270  -14.4660 C   0  0  0  0  0  0  0  0  0  0  0  0
   -8.9420   -1.5060  -17.6960 C   0  0  0  0  0  0  0  0  0  0  0  0
   -5.8540   -2.8810  -16.0450 C   0  0  0  0  0  0  0  0  0  0  0  0
   -4.2510   -1.0850  -18.8700 C   0  0  0  0  0  0  0  0  0  0  0  0
    0.1860   -0.0510  -18.8460 N   0  0  0  0  0  0  0  0  0  0  0  0
   -7.5820   -1.9170  -17.2070 C   0  0  0  0  0  0  0  0  0  0  0  0
   -2.4210   -2.8460  -15.9880 C   0  0  0  0  0  0  0  0  0  0  0  0
   -5.8050   -0.8560  -19.2000 S   0  0  0  0  0  0  0  0  0  0  0  0
   -0.4070   -2.1140  -17.8490 C   0  0  0  0  0  0  0  0  0  0  0  0
   -0.6950   -0.6280  -19.7720 C   0  0  0  0  0  0  0  0  0  0  0  0
   -1.8660   -1.1960  -19.0080 C   0  0  0  0  0  0  0  0  0  0  0  0
   -5.3440   -2.0670  -17.0660 N   0  0  0  0  0  0  0  0  0  0  0  0
  1 15  4  0
  1 21  4  0
  2 16  1  0
  4  2  1  0
  4 21  4  0
  6 20  2  0
  6 13  1  0
  7 18  1  0
  7  2  1  0
  8 16  1  0
  9 12  4  0
  9  3  1  0
 11 15  1  0
 13  4  4  0
 14  5  1  0
 15  9  4  0
 16 10  1  0
 17 13  4  0
 17  1  4  0
 18  5  1  0
 19 20  1  0
 19 14  1  0
 20  7  1  0
 21 12  4  0
M  END
$$$$
