
     RDKit          3D

 19 22  0  0  0  0  0  0  0  0999 V2000
   -1.3400   -1.1210  -16.9400 C   0  0  0  0  0  0  0  0  0  0  0  0
   -3.6610   -1.8210  -16.8510 C   0  0  0  0  0  0  0  0  0  0  0  0
   -2.5940   -1.1630  -17.4350 C   0  0  0  0  0  0  0  0  0  0  0  0
   -8.1340   -3.2210  -16.3930 C   0  0  0  0  0  0  0  0  0  0  0  0
   -4.8470   -1.6660  -17.6730 C   0  0  0  0  0  0  0  0  0  0  0  0
   -6.1410   -3.0610  -15.3530 C   0  0  0  0  0  0  0  0  0  0  0  0
   -6.4840   -0.9950  -19.7820 C   0  0  0  0  0  0  0  0  0  0  0  0
   -4.3510   -1.0040  -18.7650 C   0  0  0  0  0  0  0  0  0  0  0  0
   -9.3340   -3.2070  -17.2520 C   0  0  0  0  0  0  0  0  0  0  0  0
   -3.0340   -0.7670  -18.5350 N   0  0  0  0  0  0  0  0  0  0  0  0
   -7.0160   -3.7230  -14.5740 O   0  0  0  0  0  0  0  0  0  0  0  0
   -3.3970   -2.3900  -15.6640 C   0  0  0  0  0  0  0  0  0  0  0  0
   -5.1260   -0.7110  -19.8700 C   0  0  0  0  0  0  0  0  0  0  0  0
   -6.2340   -2.0150  -17.6350 C   0  0  0  0  0  0  0  0  0  0  0  0
   -1.1070   -1.6460  -15.6730 C   0  0  0  0  0  0  0  0  0  0  0  0
   -6.8230   -2.6950  -16.5410 C   0  0  0  0  0  0  0  0  0  0  0  0
   -8.2160   -3.8050  -15.2350 N   0  0  0  0  0  0  0  0  0  0  0  0
   -7.0140   -1.6490  -18.6690 C   0  0  0  0  0  0  0  0  0  0  0  0
   -2.1660   -2.2800  -15.0730 C   0  0  0  0  0  0  0  0  0  0  0  0
  1 15  1  0
  2 12  1  0
  3  1  2  0
  3  2  1  0
  4 17  4  0
  5 14  4  0
  5  2  2  0
  6 11  4  0
  7 18  4  0
  8 10  2  0
  8  5  4  0
  9  4  1  0
 10  3  1  0
 12 19  2  0
 13  7  4  0
 13  8  4  0
 14 16  1  0
 15 19  1  0
 16  4  4  0
 16  6  4  0
 17 11  4  0
 18 14  4  0
M  END
$$$$

     RDKit          3D

 19 22  0  0  0  0  0  0  0  0999 V2000
   -1.2560   -1.1290  -17.0160 C   0  0  0  0  0  0  0  0  0  0  0  0
   -3.5630   -1.7890  -16.8740 C   0  0  0  0  0  0  0  0  0  0  0  0
   -2.4740   -1.2880  -17.5510 C   0  0  0  0  0  0  0  0  0  0  0  0
   -8.0630   -2.8730  -16.4750 C   0  0  0  0  0  0  0  0  0  0  0  0
   -4.6990   -1.7010  -17.7780 C   0  0  0  0  0  0  0  0  0  0  0  0
   -5.9630   -3.0300  -15.6860 N   0  0  0  0  0  0  0  0  0  0  0  0
   -6.3720   -0.9650  -20.0410 C   0  0  0  0  0  0  0  0  0  0  0  0
   -4.1530   -1.1010  -18.9730 C   0  0  0  0  0  0  0  0  0  0  0  0
   -9.4220   -2.6600  -17.1350 C   0  0  0  0  0  0  0  0  0  0  0  0
   -2.8700   -0.9010  -18.8340 N   0  0  0  0  0  0  0  0  0  0  0  0
   -6.8200   -3.6570  -14.8380 N   0  0  0  0  0  0  0  0  0  0  0  0
   -3.4160   -2.3200  -15.6080 C   0  0  0  0  0  0  0  0  0  0  0  0
   -4.9800   -0.7410  -20.1370 C   0  0  0  0  0  0  0  0  0  0  0  0
   -6.1180   -1.9310  -17.7630 C   0  0  0  0  0  0  0  0  0  0  0  0
   -1.0550   -1.6340  -15.7340 C   0  0  0  0  0  0  0  0  0  0  0  0
   -6.7090   -2.5630  -16.7270 C   0  0  0  0  0  0  0  0  0  0  0  0
   -8.1060   -3.5120  -15.2680 N   0  0  0  0  0  0  0  0  0  0  0  0
   -6.8810   -1.6120  -18.8760 C   0  0  0  0  0  0  0  0  0  0  0  0
   -2.1190   -2.1840  -15.0130 C   0  0  0  0  0  0  0  0  0  0  0  0
  1 15  1  0
  2 12  1  0
  3  1  2  0
  3  2  1  0
  4 17  4  0
  5 14  4  0
  5  2  2  0
  6 11  4  0
  7 18  4  0
  8 10  2  0
  8  5  4  0
  9  4  1  0
 10  3  1  0
 12 19  2  0
 13  7  4  0
 13  8  4  0
 14 16  1  0
 15 19  1  0
 16  4  4  0
 16  6  4  0
 17 11  4  0
 18 14  4  0
M  END
$$$$

     RDKit          3D

 19 22  0  0  0  0  0  0  0  0999 V2000
   -1.3290   -0.3970  -17.2530 C   0  0  0  0  0  0  0  0  0  0  0  0
   -3.5500   -1.5270  -17.1320 C   0  0  0  0  0  0  0  0  0  0  0  0
   -2.5450   -0.7860  -17.8400 C   0  0  0  0  0  0  0  0  0  0  0  0
   -8.2380   -2.8100  -16.5210 C   0  0  0  0  0  0  0  0  0  0  0  0
   -4.8130   -1.4140  -17.9980 C   0  0  0  0  0  0  0  0  0  0  0  0
   -6.0740   -2.9450  -15.6530 N   0  0  0  0  0  0  0  0  0  0  0  0
   -6.5830   -0.8570  -20.1350 C   0  0  0  0  0  0  0  0  0  0  0  0
   -4.3370   -0.8600  -19.1630 C   0  0  0  0  0  0  0  0  0  0  0  0
   -9.3200   -2.5850  -17.1430 O   0  0  0  0  0  0  0  0  0  0  0  0
   -3.0310   -0.5520  -19.0140 N   0  0  0  0  0  0  0  0  0  0  0  0
   -6.9480   -3.6040  -14.7960 N   0  0  0  0  0  0  0  0  0  0  0  0
   -3.1970   -2.1230  -15.9450 N   0  0  0  0  0  0  0  0  0  0  0  0
   -5.2610   -0.5230  -20.2660 C   0  0  0  0  0  0  0  0  0  0  0  0
   -6.2360   -1.7890  -17.8850 C   0  0  0  0  0  0  0  0  0  0  0  0
   -1.0060   -1.0860  -16.0060 C   0  0  0  0  0  0  0  0  0  0  0  0
   -6.8410   -2.4450  -16.7610 C   0  0  0  0  0  0  0  0  0  0  0  0
   -8.2250   -3.5450  -15.2970 N   0  0  0  0  0  0  0  0  0  0  0  0
   -7.1310   -1.3620  -18.9630 C   0  0  0  0  0  0  0  0  0  0  0  0
   -1.8690   -1.9290  -15.4450 C   0  0  0  0  0  0  0  0  0  0  0  0
  1 15  1  0
  2 12  1  0
  3  1  2  0
  3  2  1  0
  4 17  1  0
  5 14  4  0
  5  2  2  0
  6 11  1  0
  7 18  4  0
  8 10  2  0
  8  5  4  0
  9  4  2  0
 10  3  1  0
 12 19  2  0
 13  7  4  0
 13  8  4  0
 14 16  1  0
 15 19  1  0
 16  4  1  0
 16  6  2  0
 17 11  2  0
 18 14  4  0
M  END
$$$$

     RDKit          3D

 19 22  0  0  0  0  0  0  0  0999 V2000
   -1.2830   -0.7700  -16.9760 C   0  0  0  0  0  0  0  0  0  0  0  0
   -3.5240   -1.6970  -16.9580 C   0  0  0  0  0  0  0  0  0  0  0  0
   -2.4980   -0.9410  -17.5080 C   0  0  0  0  0  0  0  0  0  0  0  0
   -7.9670   -3.2180  -16.3400 C   0  0  0  0  0  0  0  0  0  0  0  0
   -4.6780   -1.5350  -17.7440 C   0  0  0  0  0  0  0  0  0  0  0  0
   -5.8590   -3.0650  -15.4870 N   0  0  0  0  0  0  0  0  0  0  0  0
   -6.5710   -0.8820  -19.7940 C   0  0  0  0  0  0  0  0  0  0  0  0
   -4.3250   -0.8470  -18.8770 C   0  0  0  0  0  0  0  0  0  0  0  0
   -9.3400   -3.1170  -17.2550 S   0  0  0  0  0  0  0  0  0  0  0  0
   -3.0410   -0.5360  -18.7300 N   0  0  0  0  0  0  0  0  0  0  0  0
   -6.6080   -3.9070  -14.8210 N   0  0  0  0  0  0  0  0  0  0  0  0
   -3.2180   -2.4420  -15.8300 C   0  0  0  0  0  0  0  0  0  0  0  0
   -5.1650   -0.5240  -19.9340 C   0  0  0  0  0  0  0  0  0  0  0  0
   -6.0830   -1.8940  -17.6650 C   0  0  0  0  0  0  0  0  0  0  0  0
   -0.9960   -1.5260  -15.8720 C   0  0  0  0  0  0  0  0  0  0  0  0
   -6.6340   -2.6030  -16.4740 C   0  0  0  0  0  0  0  0  0  0  0  0
   -7.9180   -3.9800  -15.2660 N   0  0  0  0  0  0  0  0  0  0  0  0
   -6.8830   -1.5090  -18.6470 N   0  0  0  0  0  0  0  0  0  0  0  0
   -1.8910   -2.3100  -15.2790 C   0  0  0  0  0  0  0  0  0  0  0  0
  1 15  1  0
  2 12  1  0
  3  1  2  0
  3  2  1  0
  4 17  1  0
  5 14  4  0
  5  2  2  0
  6 11  1  0
  7 18  4  0
  8 10  2  0
  8  5  4  0
  9  4  2  0
 10  3  1  0
 12 19  2  0
 13  7  4  0
 13  8  4  0
 14 16  1  0
 15 19  1  0
 16  4  1  0
 16  6  2  0
 17 11  2  0
 18 14  4  0
M  END
$$$$

     RDKit          3D

 19 22  0  0  0  0  0  0  0  0999 V2000
   -1.2050   -0.5780  -16.8380 C   0  0  0  0  0  0  0  0  0  0  0  0
   -3.4260   -1.8820  -16.9140 C   0  0  0  0  0  0  0  0  0  0  0  0
   -2.4140   -0.9050  -17.5420 C   0  0  0  0  0  0  0  0  0  0  0  0
   -8.1020   -3.1010  -16.2440 C   0  0  0  0  0  0  0  0  0  0  0  0
   -4.6560   -1.6950  -17.7780 C   0  0  0  0  0  0  0  0  0  0  0  0
   -5.9510   -3.4600  -15.3930 N   0  0  0  0  0  0  0  0  0  0  0  0
   -6.4970   -0.9020  -19.6810 C   0  0  0  0  0  0  0  0  0  0  0  0
   -4.3460   -0.8030  -18.8740 C   0  0  0  0  0  0  0  0  0  0  0  0
   -9.3890   -2.7900  -16.9930 C   0  0  0  0  0  0  0  0  0  0  0  0
   -3.0350   -0.3570  -18.6970 N   0  0  0  0  0  0  0  0  0  0  0  0
   -6.7640   -4.0420  -14.6010 N   0  0  0  0  0  0  0  0  0  0  0  0
   -2.8990   -2.7890  -15.8380 C   0  0  0  0  0  0  0  0  0  0  0  0
   -5.2910   -0.4710  -19.8330 N   0  0  0  0  0  0  0  0  0  0  0  0
   -6.1080   -2.0100  -17.7050 C   0  0  0  0  0  0  0  0  0  0  0  0
   -0.7840   -1.4730  -15.7550 C   0  0  0  0  0  0  0  0  0  0  0  0
   -6.6780   -2.8130  -16.4770 C   0  0  0  0  0  0  0  0  0  0  0  0
   -8.0520   -3.8780  -15.0760 C   0  0  0  0  0  0  0  0  0  0  0  0
   -6.9310   -1.7160  -18.6780 N   0  0  0  0  0  0  0  0  0  0  0  0
   -1.6350   -2.5020  -15.2790 C   0  0  0  0  0  0  0  0  0  0  0  0
  1 15  4  0
  2 12  4  0
  3  2  4  0
  3  1  4  0
  4 17  1  0
  5  8  1  0
  5 14  1  0
  5  2  1  0
  6 11  2  0
  7 18  1  0
  8 10  2  0
  9  4  1  0
 10  3  1  0
 12 19  4  0
 13  7  2  0
 13  8  1  0
 14 16  1  0
 15 19  4  0
 16  4  2  0
 16  6  1  0
 17 11  1  0
 18 14  2  0
M  END
$$$$

     RDKit          3D

 19 22  0  0  0  0  0  0  0  0999 V2000
   -1.2670   -1.0260  -16.8510 C   0  0  0  0  0  0  0  0  0  0  0  0
   -3.5140   -2.0080  -16.7780 C   0  0  0  0  0  0  0  0  0  0  0  0
   -2.5210   -1.1900  -17.3720 C   0  0  0  0  0  0  0  0  0  0  0  0
   -8.1230   -3.2790  -16.1800 C   0  0  0  0  0  0  0  0  0  0  0  0
   -4.7210   -1.7630  -17.5520 C   0  0  0  0  0  0  0  0  0  0  0  0
   -6.0850   -3.5450  -15.4400 N   0  0  0  0  0  0  0  0  0  0  0  0
   -6.5720   -1.0420  -19.4890 C   0  0  0  0  0  0  0  0  0  0  0  0
   -4.3770   -0.9470  -18.5940 C   0  0  0  0  0  0  0  0  0  0  0  0
   -9.2850   -3.0510  -16.8580 N   0  0  0  0  0  0  0  0  0  0  0  0
   -3.0590   -0.5380  -18.4570 N   0  0  0  0  0  0  0  0  0  0  0  0
   -6.8990   -4.1330  -14.5670 N   0  0  0  0  0  0  0  0  0  0  0  0
   -3.1320   -2.6970  -15.6540 C   0  0  0  0  0  0  0  0  0  0  0  0
   -5.2480   -0.6330  -19.6310 C   0  0  0  0  0  0  0  0  0  0  0  0
   -6.1070   -2.1880  -17.4600 C   0  0  0  0  0  0  0  0  0  0  0  0
   -0.9810   -1.6840  -15.6470 C   0  0  0  0  0  0  0  0  0  0  0  0
   -6.7310   -2.9700  -16.3630 C   0  0  0  0  0  0  0  0  0  0  0  0
   -8.1670   -4.0340  -15.0720 N   0  0  0  0  0  0  0  0  0  0  0  0
   -7.0230   -1.7580  -18.5140 C   0  0  0  0  0  0  0  0  0  0  0  0
   -1.9080   -2.5640  -15.0940 C   0  0  0  0  0  0  0  0  0  0  0  0
  1 15  1  0
  2 12  1  0
  3  1  2  0
  3  2  1  0
  4 17  4  0
  5 14  4  0
  5  2  2  0
  6 11  4  0
  7 18  4  0
  8 10  2  0
  8  5  4  0
  9  4  1  0
 10  3  1  0
 12 19  2  0
 13  7  4  0
 13  8  4  0
 14 16  1  0
 15 19  1  0
 16  4  4  0
 16  6  4  0
 17 11  4  0
 18 14  4  0
M  END
$$$$

     RDKit          3D

 19 22  0  0  0  0  0  0  0  0999 V2000
   -1.3980   -0.8010  -16.7700 C   0  0  0  0  0  0  0  0  0  0  0  0
   -3.7130   -1.7970  -16.8650 C   0  0  0  0  0  0  0  0  0  0  0  0
   -2.7060   -0.9940  -17.4770 C   0  0  0  0  0  0  0  0  0  0  0  0
   -8.1370   -3.2680  -16.2170 C   0  0  0  0  0  0  0  0  0  0  0  0
   -4.8850   -1.7110  -17.7420 C   0  0  0  0  0  0  0  0  0  0  0  0
   -6.1270   -3.3290  -15.4020 N   0  0  0  0  0  0  0  0  0  0  0  0
   -6.7050   -1.0160  -19.9010 C   0  0  0  0  0  0  0  0  0  0  0  0
   -4.4450   -0.9300  -18.8430 C   0  0  0  0  0  0  0  0  0  0  0  0
   -9.4580   -3.2120  -16.9760 S   0  0  0  0  0  0  0  0  0  0  0  0
   -3.0370   -0.5820  -18.7110 N   0  0  0  0  0  0  0  0  0  0  0  0
   -6.8890   -4.0230  -14.5950 C   0  0  0  0  0  0  0  0  0  0  0  0
   -3.4420   -2.4540  -15.6200 C   0  0  0  0  0  0  0  0  0  0  0  0
   -5.3080   -0.6530  -19.9290 C   0  0  0  0  0  0  0  0  0  0  0  0
   -6.2590   -2.1400  -17.6410 C   0  0  0  0  0  0  0  0  0  0  0  0
   -1.2350   -1.4510  -15.5400 C   0  0  0  0  0  0  0  0  0  0  0  0
   -6.8620   -2.8820  -16.4800 C   0  0  0  0  0  0  0  0  0  0  0  0
   -8.2000   -3.9360  -15.0280 N   0  0  0  0  0  0  0  0  0  0  0  0
   -7.1190   -1.7340  -18.7600 C   0  0  0  0  0  0  0  0  0  0  0  0
   -2.1820   -2.3080  -14.9860 C   0  0  0  0  0  0  0  0  0  0  0  0
  1 15  1  0
  2 12  1  0
  3  2  1  0
  3  1  2  0
  4 17  1  0
  5 14  4  0
  5  2  2  0
  6 11  2  0
  7 18  4  0
  8 10  2  0
  8  5  4  0
  9  4  2  0
 10  3  1  0
 12 19  2  0
 13  7  4  0
 13  8  4  0
 15 19  1  0
 16 14  1  0
 16  4  1  0
 16  6  1  0
 17 11  1  0
 18 14  4  0
M  END
$$$$

     RDKit          3D

 19 22  0  0  0  0  0  0  0  0999 V2000
   -1.3550   -0.5260  -16.8480 C   0  0  0  0  0  0  0  0  0  0  0  0
   -3.5140   -1.7160  -16.8060 C   0  0  0  0  0  0  0  0  0  0  0  0
   -2.5620   -0.8580  -17.4120 C   0  0  0  0  0  0  0  0  0  0  0  0
   -8.3170   -3.1930  -16.3230 C   0  0  0  0  0  0  0  0  0  0  0  0
   -4.7780   -1.5840  -17.6340 C   0  0  0  0  0  0  0  0  0  0  0  0
   -6.2520   -3.1770  -15.3180 N   0  0  0  0  0  0  0  0  0  0  0  0
   -6.4420   -0.8800  -19.6390 C   0  0  0  0  0  0  0  0  0  0  0  0
   -4.3980   -0.8120  -18.7520 C   0  0  0  0  0  0  0  0  0  0  0  0
   -9.4230   -2.9680  -17.1030 N   0  0  0  0  0  0  0  0  0  0  0  0
   -3.1140   -0.4460  -18.6250 N   0  0  0  0  0  0  0  0  0  0  0  0
   -7.1520   -4.0880  -14.6440 N   0  0  0  0  0  0  0  0  0  0  0  0
   -3.0590   -2.4670  -15.7250 C   0  0  0  0  0  0  0  0  0  0  0  0
   -5.2060   -0.5690  -19.7330 N   0  0  0  0  0  0  0  0  0  0  0  0
   -6.1730   -1.9940  -17.5170 C   0  0  0  0  0  0  0  0  0  0  0  0
   -0.9960   -1.2540  -15.7390 C   0  0  0  0  0  0  0  0  0  0  0  0
   -6.8600   -2.7370  -16.4140 C   0  0  0  0  0  0  0  0  0  0  0  0
   -8.3620   -4.0010  -15.2580 N   0  0  0  0  0  0  0  0  0  0  0  0
   -7.0570   -1.5880  -18.5880 C   0  0  0  0  0  0  0  0  0  0  0  0
   -1.8500   -2.2360  -15.1950 C   0  0  0  0  0  0  0  0  0  0  0  0
  1 15  4  0
  2 12  4  0
  3  1  4  0
  3  2  4  0
  4 17  4  0
  5  8  1  0
  5 14  1  0
  5  2  1  0
  6 11  4  0
  7 18  1  0
  8 10  2  0
  9  4  1  0
 10  3  1  0
 12 19  4  0
 13  7  2  0
 13  8  1  0
 14 16  1  0
 15 19  4  0
 16  4  4  0
 16  6  4  0
 17 11  4  0
 18 14  2  0
M  END
$$$$

     RDKit          3D

 19 22  0  0  0  0  0  0  0  0999 V2000
   -1.3290   -1.0410  -16.5710 C   0  0  0  0  0  0  0  0  0  0  0  0
   -3.6370   -1.8580  -16.7470 C   0  0  0  0  0  0  0  0  0  0  0  0
   -2.4460   -1.0950  -17.2990 C   0  0  0  0  0  0  0  0  0  0  0  0
   -8.1860   -3.0930  -16.5830 N   0  0  0  0  0  0  0  0  0  0  0  0
   -4.7220   -1.6170  -17.7070 C   0  0  0  0  0  0  0  0  0  0  0  0
   -6.2880   -3.1550  -15.4910 C   0  0  0  0  0  0  0  0  0  0  0  0
   -6.4010   -0.9260  -19.8960 C   0  0  0  0  0  0  0  0  0  0  0  0
   -4.2180   -1.0080  -18.8570 C   0  0  0  0  0  0  0  0  0  0  0  0
   -9.3560   -2.7740  -17.3770 C   0  0  0  0  0  0  0  0  0  0  0  0
   -2.8160   -0.7920  -18.5570 N   0  0  0  0  0  0  0  0  0  0  0  0
   -7.1860   -3.9770  -14.8400 N   0  0  0  0  0  0  0  0  0  0  0  0
   -3.5540   -2.4590  -15.5290 C   0  0  0  0  0  0  0  0  0  0  0  0
   -5.0230   -0.7080  -19.9470 C   0  0  0  0  0  0  0  0  0  0  0  0
   -6.2480   -1.9440  -17.7250 C   0  0  0  0  0  0  0  0  0  0  0  0
   -1.2030   -1.6420  -15.3370 C   0  0  0  0  0  0  0  0  0  0  0  0
   -6.8740   -2.6740  -16.6530 C   0  0  0  0  0  0  0  0  0  0  0  0
   -8.3370   -3.8660  -15.4840 N   0  0  0  0  0  0  0  0  0  0  0  0
   -6.9620   -1.5220  -18.8200 C   0  0  0  0  0  0  0  0  0  0  0  0
   -2.3420   -2.3180  -14.8430 C   0  0  0  0  0  0  0  0  0  0  0  0
  1 15  1  0
  2 12  1  0
  3  2  1  0
  3  1  2  0
  4 17  4  0
  5  2  2  0
  6 11  4  0
  7 18  4  0
  8 10  2  0
  8  5  4  0
  9  4  1  0
 10  3  1  0
 12 19  2  0
 13  7  4  0
 13  8  4  0
 14  5  4  0
 14 16  1  0
 15 19  1  0
 16  4  4  0
 16  6  4  0
 17 11  4  0
 18 14  4  0
M  END
$$$$

     RDKit          3D

 19 22  0  0  0  0  0  0  0  0999 V2000
   -1.2700   -1.2380  -16.9840 C   0  0  0  0  0  0  0  0  0  0  0  0
   -3.6340   -1.8750  -16.9760 C   0  0  0  0  0  0  0  0  0  0  0  0
   -2.5540   -1.2650  -17.6420 C   0  0  0  0  0  0  0  0  0  0  0  0
   -8.2460   -2.9840  -16.4960 C   0  0  0  0  0  0  0  0  0  0  0  0
   -4.8520   -1.6610  -17.8480 C   0  0  0  0  0  0  0  0  0  0  0  0
   -6.2720   -2.9790  -15.6520 N   0  0  0  0  0  0  0  0  0  0  0  0
   -6.4890   -0.8170  -19.9260 C   0  0  0  0  0  0  0  0  0  0  0  0
   -4.3430   -0.9770  -19.0790 C   0  0  0  0  0  0  0  0  0  0  0  0
   -9.4270   -2.6930  -17.3340 C   0  0  0  0  0  0  0  0  0  0  0  0
   -3.0300   -0.9240  -18.9250 N   0  0  0  0  0  0  0  0  0  0  0  0
   -7.0330   -3.7300  -14.8000 O   0  0  0  0  0  0  0  0  0  0  0  0
   -3.4370   -2.5530  -15.7630 C   0  0  0  0  0  0  0  0  0  0  0  0
   -5.1590   -0.5930  -20.1690 N   0  0  0  0  0  0  0  0  0  0  0  0
   -6.3690   -1.7830  -17.8240 C   0  0  0  0  0  0  0  0  0  0  0  0
   -1.1170   -1.8110  -15.7750 C   0  0  0  0  0  0  0  0  0  0  0  0
   -6.9390   -2.5460  -16.6810 C   0  0  0  0  0  0  0  0  0  0  0  0
   -8.3900   -3.7280  -15.3700 N   0  0  0  0  0  0  0  0  0  0  0  0
   -7.1190   -1.2850  -18.8300 N   0  0  0  0  0  0  0  0  0  0  0  0
   -2.2240   -2.4470  -15.0940 C   0  0  0  0  0  0  0  0  0  0  0  0
  1 15  4  0
  2 12  4  0
  3  1  4  0
  3  2  4  0
  4 17  4  0
  5 14  4  0
  5  2  4  0
  6 11  4  0
  7 18  4  0
  8 10  4  0
  8  5  1  0
  9  4  1  0
 10  3  4  0
 12 19  4  0
 13  7  4  0
 13  8  4  0
 14 16  1  0
 15 19  4  0
 16  4  4  0
 16  6  4  0
 17 11  4  0
 18 14  4  0
M  END
$$$$

     RDKit          3D

 19 22  0  0  0  0  0  0  0  0999 V2000
   -1.2680   -0.9630  -17.3210 C   0  0  0  0  0  0  0  0  0  0  0  0
   -3.5910   -1.7020  -17.0860 C   0  0  0  0  0  0  0  0  0  0  0  0
   -2.5640   -1.0610  -17.8000 C   0  0  0  0  0  0  0  0  0  0  0  0
   -8.1510   -2.7980  -16.5190 N   0  0  0  0  0  0  0  0  0  0  0  0
   -4.8250   -1.5170  -17.8420 C   0  0  0  0  0  0  0  0  0  0  0  0
   -6.2220   -2.9700  -15.4970 N   0  0  0  0  0  0  0  0  0  0  0  0
   -6.6120   -0.8060  -19.8000 C   0  0  0  0  0  0  0  0  0  0  0  0
   -4.4270   -0.8830  -19.0160 C   0  0  0  0  0  0  0  0  0  0  0  0
   -9.3030   -2.4340  -17.4450 C   0  0  0  0  0  0  0  0  0  0  0  0
   -3.0590   -0.5430  -18.9800 N   0  0  0  0  0  0  0  0  0  0  0  0
   -7.1230   -3.5860  -14.8160 N   0  0  0  0  0  0  0  0  0  0  0  0
   -3.2030   -2.2860  -15.8660 C   0  0  0  0  0  0  0  0  0  0  0  0
   -5.3110   -0.5640  -19.9810 C   0  0  0  0  0  0  0  0  0  0  0  0
   -6.2080   -1.8460  -17.6550 C   0  0  0  0  0  0  0  0  0  0  0  0
   -1.0110   -1.1840  -16.1100 C   0  0  0  0  0  0  0  0  0  0  0  0
   -6.8150   -2.5290  -16.5950 C   0  0  0  0  0  0  0  0  0  0  0  0
   -8.3150   -3.4890  -15.4070 N   0  0  0  0  0  0  0  0  0  0  0  0
   -7.0700   -1.4430  -18.7200 N   0  0  0  0  0  0  0  0  0  0  0  0
   -1.9390   -1.9940  -15.3790 C   0  0  0  0  0  0  0  0  0  0  0  0
  1 15  1  0
  2 12  1  0
  3  1  2  0
  3  2  1  0
  4 17  4  0
  5 14  4  0
  5  2  2  0
  6 11  4  0
  7 18  4  0
  8 10  2  0
  8  5  4  0
  9  4  1  0
 10  3  1  0
 12 19  2  0
 13  7  4  0
 13  8  4  0
 14 16  1  0
 15 19  1  0
 16  4  4  0
 16  6  4  0
 17 11  4  0
 18 14  4  0
M  END
$$$$

     RDKit          3D

 19 22  0  0  0  0  0  0  0  0999 V2000
   -1.1590   -1.0200  -17.0170 C   0  0  0  0  0  0  0  0  0  0  0  0
   -3.5500   -1.9220  -16.8880 C   0  0  0  0  0  0  0  0  0  0  0  0
   -2.5010   -1.0790  -17.5380 C   0  0  0  0  0  0  0  0  0  0  0  0
   -8.1010   -3.3000  -16.3310 C   0  0  0  0  0  0  0  0  0  0  0  0
   -4.7370   -1.7530  -17.7030 C   0  0  0  0  0  0  0  0  0  0  0  0
   -5.9330   -3.1820  -15.5210 N   0  0  0  0  0  0  0  0  0  0  0  0
   -6.5470   -0.8540  -19.7780 C   0  0  0  0  0  0  0  0  0  0  0  0
   -4.3520   -0.9080  -18.8010 C   0  0  0  0  0  0  0  0  0  0  0  0
   -9.3090   -3.1620  -17.1870 C   0  0  0  0  0  0  0  0  0  0  0  0
   -3.0080   -0.5670  -18.7110 O   0  0  0  0  0  0  0  0  0  0  0  0
   -6.7380   -4.0630  -14.6460 N   0  0  0  0  0  0  0  0  0  0  0  0
   -3.1130   -2.6380  -15.7680 C   0  0  0  0  0  0  0  0  0  0  0  0
   -5.2140   -0.4390  -19.8060 N   0  0  0  0  0  0  0  0  0  0  0  0
   -6.1870   -2.0680  -17.6610 C   0  0  0  0  0  0  0  0  0  0  0  0
   -0.8500   -1.7000  -15.8530 C   0  0  0  0  0  0  0  0  0  0  0  0
   -6.7550   -2.8200  -16.5070 C   0  0  0  0  0  0  0  0  0  0  0  0
   -8.0640   -4.0480  -15.1510 N   0  0  0  0  0  0  0  0  0  0  0  0
   -7.0320   -1.6190  -18.6890 C   0  0  0  0  0  0  0  0  0  0  0  0
   -1.7840   -2.5690  -15.2280 C   0  0  0  0  0  0  0  0  0  0  0  0
  1 15  4  0
  2 12  4  0
  3  1  4  0
  3  2  4  0
  4 17  4  0
  5 14  4  0
  5  2  4  0
  6 11  4  0
  7 18  4  0
  8 10  4  0
  8  5  4  0
  9  4  1  0
 10  3  4  0
 12 19  4  0
 13  7  4  0
 13  8  4  0
 14 16  1  0
 15 19  4  0
 16  4  4  0
 16  6  4  0
 17 11  4  0
 18 14  4  0
M  END
$$$$

     RDKit          3D

 19 22  0  0  0  0  0  0  0  0999 V2000
   -1.2120   -0.7530  -16.8270 C   0  0  0  0  0  0  0  0  0  0  0  0
   -3.4710   -1.8610  -16.9060 C   0  0  0  0  0  0  0  0  0  0  0  0
   -2.3800   -1.0800  -17.5450 C   0  0  0  0  0  0  0  0  0  0  0  0
   -7.9540   -3.1160  -16.3390 C   0  0  0  0  0  0  0  0  0  0  0  0
   -4.6690   -1.6350  -17.7620 C   0  0  0  0  0  0  0  0  0  0  0  0
   -5.8830   -3.1190  -15.4790 N   0  0  0  0  0  0  0  0  0  0  0  0
   -6.4540   -0.8090  -19.8030 C   0  0  0  0  0  0  0  0  0  0  0  0
   -4.1820   -0.8640  -19.0170 C   0  0  0  0  0  0  0  0  0  0  0  0
   -9.1210   -2.8930  -17.2000 C   0  0  0  0  0  0  0  0  0  0  0  0
   -2.8240   -0.6020  -18.7800 N   0  0  0  0  0  0  0  0  0  0  0  0
   -6.6690   -3.8360  -14.6850 O   0  0  0  0  0  0  0  0  0  0  0  0
   -3.1530   -2.6080  -15.7420 C   0  0  0  0  0  0  0  0  0  0  0  0
   -5.0630   -0.5780  -19.9280 N   0  0  0  0  0  0  0  0  0  0  0  0
   -6.1350   -1.8990  -17.6220 C   0  0  0  0  0  0  0  0  0  0  0  0
   -0.9030   -1.6240  -15.7420 C   0  0  0  0  0  0  0  0  0  0  0  0
   -6.6160   -2.6280  -16.5620 C   0  0  0  0  0  0  0  0  0  0  0  0
   -7.9260   -3.8030  -15.2030 N   0  0  0  0  0  0  0  0  0  0  0  0
   -6.9570   -1.4890  -18.7100 C   0  0  0  0  0  0  0  0  0  0  0  0
   -1.8790   -2.5030  -15.2170 C   0  0  0  0  0  0  0  0  0  0  0  0
  1 15  4  0
  2 12  4  0
  3  2  4  0
  3  1  4  0
  4 17  4  0
  5  8  1  0
  5 14  1  0
  5  2  1  0
  6 11  4  0
  7 18  1  0
  8 10  2  0
  9  4  1  0
 10  3  1  0
 12 19  4  0
 13  7  2  0
 13  8  1  0
 14 16  1  0
 15 19  4  0
 16  4  4  0
 16  6  4  0
 17 11  4  0
 18 14  2  0
M  END
$$$$

     RDKit          3D

 19 22  0  0  0  0  0  0  0  0999 V2000
   -1.4110   -0.9990  -16.9160 C   0  0  0  0  0  0  0  0  0  0  0  0
   -3.6350   -1.9070  -16.9080 C   0  0  0  0  0  0  0  0  0  0  0  0
   -2.6350   -1.1730  -17.5040 N   0  0  0  0  0  0  0  0  0  0  0  0
   -8.0230   -3.0380  -16.3350 C   0  0  0  0  0  0  0  0  0  0  0  0
   -4.8450   -1.6510  -17.6930 C   0  0  0  0  0  0  0  0  0  0  0  0
   -6.0660   -3.0700  -15.4410 N   0  0  0  0  0  0  0  0  0  0  0  0
   -6.4820   -0.8730  -19.7550 C   0  0  0  0  0  0  0  0  0  0  0  0
   -4.3660   -0.9720  -18.8120 C   0  0  0  0  0  0  0  0  0  0  0  0
   -9.2900   -2.8600  -17.1430 C   0  0  0  0  0  0  0  0  0  0  0  0
   -3.0720   -0.7150  -18.5920 N   0  0  0  0  0  0  0  0  0  0  0  0
   -6.9260   -3.7010  -14.6430 N   0  0  0  0  0  0  0  0  0  0  0  0
   -3.3100   -2.6780  -15.8370 C   0  0  0  0  0  0  0  0  0  0  0  0
   -5.1980   -0.6380  -19.7890 N   0  0  0  0  0  0  0  0  0  0  0  0
   -6.1840   -1.9530  -17.6370 C   0  0  0  0  0  0  0  0  0  0  0  0
   -1.1280   -1.7520  -15.8010 C   0  0  0  0  0  0  0  0  0  0  0  0
   -6.7400   -2.6200  -16.5370 C   0  0  0  0  0  0  0  0  0  0  0  0
   -8.1290   -3.7730  -15.2110 N   0  0  0  0  0  0  0  0  0  0  0  0
   -7.0440   -1.5660  -18.6730 C   0  0  0  0  0  0  0  0  0  0  0  0
   -2.1180   -2.5910  -15.2360 C   0  0  0  0  0  0  0  0  0  0  0  0
  1 15  1  0
  2 12  2  0
  3  1  1  0
  3  2  4  0
  4 17  4  0
  5 14  2  0
  5  2  4  0
  6 11  4  0
  7 18  1  0
  8 10  4  0
  8  5  4  0
  9  4  1  0
 10  3  4  0
 12 19  1  0
 13  7  2  0
 13  8  1  0
 14 16  1  0
 15 19  2  0
 16  4  4  0
 16  6  4  0
 17 11  4  0
 18 14  1  0
M  END
$$$$

     RDKit          3D

 19 22  0  0  0  0  0  0  0  0999 V2000
   -1.4740   -0.6160  -16.9810 C   0  0  0  0  0  0  0  0  0  0  0  0
   -3.6580   -1.7900  -16.9930 C   0  0  0  0  0  0  0  0  0  0  0  0
   -2.6690   -0.9890  -17.5670 C   0  0  0  0  0  0  0  0  0  0  0  0
   -8.1920   -3.1620  -16.4420 C   0  0  0  0  0  0  0  0  0  0  0  0
   -4.8890   -1.6430  -17.7770 C   0  0  0  0  0  0  0  0  0  0  0  0
   -6.2200   -3.4930  -15.6870 N   0  0  0  0  0  0  0  0  0  0  0  0
   -6.6500   -0.9520  -19.8310 C   0  0  0  0  0  0  0  0  0  0  0  0
   -4.4700   -0.9120  -18.9240 C   0  0  0  0  0  0  0  0  0  0  0  0
   -9.4700   -2.7790  -17.2400 C   0  0  0  0  0  0  0  0  0  0  0  0
   -3.1860   -0.5060  -18.7800 N   0  0  0  0  0  0  0  0  0  0  0  0
   -7.0860   -4.2290  -14.9810 N   0  0  0  0  0  0  0  0  0  0  0  0
   -3.3080   -2.6110  -15.8120 C   0  0  0  0  0  0  0  0  0  0  0  0
   -5.3780   -0.6190  -19.9750 C   0  0  0  0  0  0  0  0  0  0  0  0
   -6.2570   -2.0700  -17.6880 C   0  0  0  0  0  0  0  0  0  0  0  0
   -1.0810   -1.4990  -15.9220 C   0  0  0  0  0  0  0  0  0  0  0  0
   -6.8600   -2.8370  -16.6750 C   0  0  0  0  0  0  0  0  0  0  0  0
   -8.3170   -4.0150  -15.3620 N   0  0  0  0  0  0  0  0  0  0  0  0
   -7.1490   -1.6470  -18.7200 C   0  0  0  0  0  0  0  0  0  0  0  0
   -1.9570   -2.3640  -15.3750 C   0  0  0  0  0  0  0  0  0  0  0  0
  1 15  1  0
  2 12  1  0
  3  2  1  0
  3  1  2  0
  4 17  4  0
  5 14  4  0
  5  2  2  0
  6 11  4  0
  7 18  4  0
  8 10  2  0
  8  5  4  0
  9  4  1  0
 10  3  1  0
 12 19  2  0
 13  7  4  0
 13  8  4  0
 14 16  1  0
 15 19  1  0
 16  4  4  0
 16  6  4  0
 17 11  4  0
 18 14  4  0
M  END
$$$$

     RDKit          3D

 19 22  0  0  0  0  0  0  0  0999 V2000
   -1.2050   -1.0910  -16.7360 C   0  0  0  0  0  0  0  0  0  0  0  0
   -3.5220   -1.7700  -16.7210 C   0  0  0  0  0  0  0  0  0  0  0  0
   -2.4110   -1.1130  -17.3660 C   0  0  0  0  0  0  0  0  0  0  0  0
   -8.1530   -3.2310  -16.3260 C   0  0  0  0  0  0  0  0  0  0  0  0
   -4.7860   -1.5890  -17.5350 C   0  0  0  0  0  0  0  0  0  0  0  0
   -6.1290   -3.2980  -15.4120 N   0  0  0  0  0  0  0  0  0  0  0  0
   -6.5620   -0.9930  -19.6910 C   0  0  0  0  0  0  0  0  0  0  0  0
   -4.2870   -0.8540  -18.6980 C   0  0  0  0  0  0  0  0  0  0  0  0
   -9.3360   -3.1580  -17.2610 C   0  0  0  0  0  0  0  0  0  0  0  0
   -2.9430   -0.6430  -18.4870 N   0  0  0  0  0  0  0  0  0  0  0  0
   -6.9430   -3.9230  -14.6190 N   0  0  0  0  0  0  0  0  0  0  0  0
   -3.3680   -2.4360  -15.4520 C   0  0  0  0  0  0  0  0  0  0  0  0
   -5.1720   -0.6190  -19.6900 C   0  0  0  0  0  0  0  0  0  0  0  0
   -6.1900   -2.0670  -17.5240 C   0  0  0  0  0  0  0  0  0  0  0  0
   -1.0560   -1.7030  -15.4680 C   0  0  0  0  0  0  0  0  0  0  0  0
   -6.7950   -2.8160  -16.4750 C   0  0  0  0  0  0  0  0  0  0  0  0
   -8.2640   -3.8910  -15.1560 N   0  0  0  0  0  0  0  0  0  0  0  0
   -7.0290   -1.7650  -18.5730 C   0  0  0  0  0  0  0  0  0  0  0  0
   -2.0690   -2.2860  -14.8340 C   0  0  0  0  0  0  0  0  0  0  0  0
  1 15  1  0
  2 12  1  0
  3  1  2  0
  3  2  1  0
  4 17  4  0
  5 14  4  0
  5  2  2  0
  6 11  4  0
  7 13  4  0
  7 18  4  0
  8 10  2  0
  8  5  4  0
  9  4  1  0
 10  3  1  0
 12 19  2  0
 13  8  4  0
 14 16  1  0
 15 19  1  0
 16  4  4  0
 16  6  4  0
 17 11  4  0
 18 14  4  0
M  END
$$$$

     RDKit          3D

 19 22  0  0  0  0  0  0  0  0999 V2000
   -1.2730   -1.0750  -16.7190 C   0  0  0  0  0  0  0  0  0  0  0  0
   -3.6850   -1.8340  -16.7590 C   0  0  0  0  0  0  0  0  0  0  0  0
   -2.5360   -1.2480  -17.3680 C   0  0  0  0  0  0  0  0  0  0  0  0
   -8.2360   -3.1690  -16.4990 C   0  0  0  0  0  0  0  0  0  0  0  0
   -4.8230   -1.6040  -17.6690 C   0  0  0  0  0  0  0  0  0  0  0  0
   -6.3050   -3.2620  -15.4110 C   0  0  0  0  0  0  0  0  0  0  0  0
   -6.4770   -0.9850  -19.8790 C   0  0  0  0  0  0  0  0  0  0  0  0
   -4.2460   -1.0250  -18.8570 C   0  0  0  0  0  0  0  0  0  0  0  0
   -9.4270   -3.1350  -17.1670 O   0  0  0  0  0  0  0  0  0  0  0  0
   -2.9530   -0.8450  -18.5940 N   0  0  0  0  0  0  0  0  0  0  0  0
   -7.1400   -3.9310  -14.7190 N   0  0  0  0  0  0  0  0  0  0  0  0
   -3.4050   -2.4380  -15.4960 C   0  0  0  0  0  0  0  0  0  0  0  0
   -5.1240   -0.6770  -19.9450 C   0  0  0  0  0  0  0  0  0  0  0  0
   -6.2510   -1.9540  -17.6870 C   0  0  0  0  0  0  0  0  0  0  0  0
   -1.1260   -1.6670  -15.5310 C   0  0  0  0  0  0  0  0  0  0  0  0
   -6.8510   -2.6560  -16.6240 C   0  0  0  0  0  0  0  0  0  0  0  0
   -8.3370   -3.8860  -15.3520 N   0  0  0  0  0  0  0  0  0  0  0  0
   -7.0490   -1.6050  -18.7770 C   0  0  0  0  0  0  0  0  0  0  0  0
   -2.1950   -2.3460  -14.8330 C   0  0  0  0  0  0  0  0  0  0  0  0
  1 15  1  0
  2 12  1  0
  3  2  1  0
  3  1  2  0
  4 17  1  0
  5  2  2  0
  6 11  2  0
  7 18  4  0
  8 10  2  0
  8  5  4  0
  9  4  2  0
 10  3  1  0
 12 19  2  0
 13  7  4  0
 13  8  4  0
 14  5  4  0
 15 19  1  0
 16 14  1  0
 16  4  1  0
 16  6  1  0
 17 11  1  0
 18 14  4  0
M  END
$$$$

     RDKit          3D

 19 22  0  0  0  0  0  0  0  0999 V2000
   -1.2740   -1.5260  -16.9960 C   0  0  0  0  0  0  0  0  0  0  0  0
   -3.6920   -1.9000  -16.8650 C   0  0  0  0  0  0  0  0  0  0  0  0
   -2.5720   -1.4550  -17.5030 C   0  0  0  0  0  0  0  0  0  0  0  0
   -8.1380   -3.0180  -16.3780 C   0  0  0  0  0  0  0  0  0  0  0  0
   -4.8490   -1.6590  -17.7690 C   0  0  0  0  0  0  0  0  0  0  0  0
   -6.0780   -3.0010  -15.5670 N   0  0  0  0  0  0  0  0  0  0  0  0
   -6.4120   -0.8790  -19.9370 C   0  0  0  0  0  0  0  0  0  0  0  0
   -4.3260   -1.0390  -18.9080 C   0  0  0  0  0  0  0  0  0  0  0  0
   -9.3670   -2.8990  -17.1990 C   0  0  0  0  0  0  0  0  0  0  0  0
   -2.9620   -0.8930  -18.7290 N   0  0  0  0  0  0  0  0  0  0  0  0
   -6.8710   -3.5750  -14.7970 N   0  0  0  0  0  0  0  0  0  0  0  0
   -3.5390   -2.4330  -15.5610 C   0  0  0  0  0  0  0  0  0  0  0  0
   -5.0370   -0.6480  -20.0040 C   0  0  0  0  0  0  0  0  0  0  0  0
   -6.2400   -1.9290  -17.7810 C   0  0  0  0  0  0  0  0  0  0  0  0
   -1.1150   -2.0530  -15.6830 C   0  0  0  0  0  0  0  0  0  0  0  0
   -6.8210   -2.5730  -16.6430 C   0  0  0  0  0  0  0  0  0  0  0  0
   -8.2060   -3.6410  -15.2710 N   0  0  0  0  0  0  0  0  0  0  0  0
   -6.9990   -1.5000  -18.8520 C   0  0  0  0  0  0  0  0  0  0  0  0
   -2.2470   -2.5590  -14.9440 C   0  0  0  0  0  0  0  0  0  0  0  0
  1 15  1  0
  2 12  1  0
  3  1  2  0
  3  2  1  0
  4 17  4  0
  5  2  2  0
  6 11  4  0
  7 18  4  0
  8 10  2  0
  8  5  4  0
  9  4  1  0
 10  3  1  0
 12 19  2  0
 13  7  4  0
 13  8  4  0
 14  5  4  0
 14 16  1  0
 15 19  1  0
 16  4  4  0
 16  6  4  0
 17 11  4  0
 18 14  4  0
M  END
$$$$

     RDKit          3D

 19 22  0  0  0  0  0  0  0  0999 V2000
   -1.3580   -0.3780  -17.1520 C   0  0  0  0  0  0  0  0  0  0  0  0
   -3.5340   -1.5480  -17.0190 C   0  0  0  0  0  0  0  0  0  0  0  0
   -2.5380   -0.7620  -17.7100 C   0  0  0  0  0  0  0  0  0  0  0  0
   -8.1770   -2.7200  -16.3300 N   0  0  0  0  0  0  0  0  0  0  0  0
   -4.7910   -1.5000  -17.8560 C   0  0  0  0  0  0  0  0  0  0  0  0
   -6.1650   -3.0710  -15.6280 N   0  0  0  0  0  0  0  0  0  0  0  0
   -6.4880   -0.7520  -19.6940 C   0  0  0  0  0  0  0  0  0  0  0  0
   -4.3190   -0.7960  -19.1220 C   0  0  0  0  0  0  0  0  0  0  0  0
   -9.3200   -2.3660  -17.0840 C   0  0  0  0  0  0  0  0  0  0  0  0
   -3.0260   -0.4240  -19.0190 N   0  0  0  0  0  0  0  0  0  0  0  0
   -6.9770   -3.5520  -14.7130 N   0  0  0  0  0  0  0  0  0  0  0  0
   -3.1300   -2.2590  -15.7840 C   0  0  0  0  0  0  0  0  0  0  0  0
   -5.2670   -0.6030  -20.1430 N   0  0  0  0  0  0  0  0  0  0  0  0
   -6.1950   -1.8210  -17.7230 C   0  0  0  0  0  0  0  0  0  0  0  0
   -0.9590   -1.0300  -15.9070 C   0  0  0  0  0  0  0  0  0  0  0  0
   -6.8280   -2.4800  -16.6090 C   0  0  0  0  0  0  0  0  0  0  0  0
   -8.2320   -3.3220  -15.0900 N   0  0  0  0  0  0  0  0  0  0  0  0
   -7.0350   -1.4700  -18.7970 N   0  0  0  0  0  0  0  0  0  0  0  0
   -1.8900   -1.9880  -15.2680 C   0  0  0  0  0  0  0  0  0  0  0  0
  1 15  4  0
  2 12  4  0
  3  1  4  0
  3  2  4  0
  4 17  4  0
  5 14  2  0
  5  2  1  0
  6 11  4  0
  7 18  1  0
  8 10  2  0
  8  5  1  0
  9  4  1  0
 10  3  1  0
 12 19  4  0
 13  7  1  0
 13  8  1  0
 14 16  1  0
 15 19  4  0
 16  4  4  0
 16  6  4  0
 17 11  4  0
 18 14  1  0
M  END
$$$$

     RDKit          3D

 19 22  0  0  0  0  0  0  0  0999 V2000
   -1.1340   -0.9940  -16.8790 C   0  0  0  0  0  0  0  0  0  0  0  0
   -3.4560   -1.8280  -16.8050 C   0  0  0  0  0  0  0  0  0  0  0  0
   -2.4000   -1.0680  -17.4800 C   0  0  0  0  0  0  0  0  0  0  0  0
   -7.9950   -3.0970  -16.3010 C   0  0  0  0  0  0  0  0  0  0  0  0
   -4.6200   -1.6310  -17.6080 C   0  0  0  0  0  0  0  0  0  0  0  0
   -5.9760   -3.1350  -15.4300 N   0  0  0  0  0  0  0  0  0  0  0  0
   -6.4070   -0.9410  -19.5280 C   0  0  0  0  0  0  0  0  0  0  0  0
   -4.2140   -0.8970  -18.7120 C   0  0  0  0  0  0  0  0  0  0  0  0
   -9.2380   -2.8700  -17.1330 C   0  0  0  0  0  0  0  0  0  0  0  0
   -2.8590   -0.5570  -18.6340 N   0  0  0  0  0  0  0  0  0  0  0  0
   -6.7820   -3.7870  -14.5520 N   0  0  0  0  0  0  0  0  0  0  0  0
   -3.1970   -2.5170  -15.6350 C   0  0  0  0  0  0  0  0  0  0  0  0
   -5.1250   -0.5160  -19.7360 C   0  0  0  0  0  0  0  0  0  0  0  0
   -6.0030   -2.0220  -17.5710 C   0  0  0  0  0  0  0  0  0  0  0  0
   -0.9170   -1.6290  -15.6550 C   0  0  0  0  0  0  0  0  0  0  0  0
   -6.6940   -2.7410  -16.5020 C   0  0  0  0  0  0  0  0  0  0  0  0
   -8.0470   -3.7360  -15.1220 N   0  0  0  0  0  0  0  0  0  0  0  0
   -6.8080   -1.5890  -18.5350 N   0  0  0  0  0  0  0  0  0  0  0  0
   -1.9540   -2.3790  -15.0630 C   0  0  0  0  0  0  0  0  0  0  0  0
  1 15  1  0
  2 12  1  0
  3  1  2  0
  3  2  1  0
  4 17  4  0
  5 14  4  0
  5  2  2  0
  6 11  4  0
  7 18  4  0
  8 10  2  0
  8  5  4  0
  9  4  1  0
 10  3  1  0
 12 19  2  0
 13  7  4  0
 13  8  4  0
 14 16  1  0
 15 19  1  0
 16  4  4  0
 16  6  4  0
 17 11  4  0
 18 14  4  0
M  END
$$$$

     RDKit          3D

 19 22  0  0  0  0  0  0  0  0999 V2000
   -1.2110   -0.9160  -16.8140 C   0  0  0  0  0  0  0  0  0  0  0  0
   -3.4460   -1.8710  -16.7660 C   0  0  0  0  0  0  0  0  0  0  0  0
   -2.5120   -1.0250  -17.3430 C   0  0  0  0  0  0  0  0  0  0  0  0
   -7.9470   -3.0380  -16.2600 C   0  0  0  0  0  0  0  0  0  0  0  0
   -4.7210   -1.7030  -17.5630 C   0  0  0  0  0  0  0  0  0  0  0  0
   -6.0700   -3.1360  -15.4010 N   0  0  0  0  0  0  0  0  0  0  0  0
   -6.3920   -1.0100  -19.6660 C   0  0  0  0  0  0  0  0  0  0  0  0
   -4.2550   -0.8990  -18.6760 C   0  0  0  0  0  0  0  0  0  0  0  0
   -9.3670   -2.3730  -17.1510 S   0  0  0  0  0  0  0  0  0  0  0  0
   -2.9420   -0.5150  -18.4890 N   0  0  0  0  0  0  0  0  0  0  0  0
   -6.9120   -3.9320  -14.6540 N   0  0  0  0  0  0  0  0  0  0  0  0
   -3.1100   -2.7310  -15.6940 C   0  0  0  0  0  0  0  0  0  0  0  0
   -5.1410   -0.6350  -19.7680 N   0  0  0  0  0  0  0  0  0  0  0  0
   -6.1020   -1.8700  -17.5080 C   0  0  0  0  0  0  0  0  0  0  0  0
   -0.9280   -1.6800  -15.7210 C   0  0  0  0  0  0  0  0  0  0  0  0
   -6.7400   -2.6500  -16.4830 C   0  0  0  0  0  0  0  0  0  0  0  0
   -7.9980   -3.8250  -15.1730 N   0  0  0  0  0  0  0  0  0  0  0  0
   -6.8940   -1.5560  -18.5770 N   0  0  0  0  0  0  0  0  0  0  0  0
   -1.8480   -2.5650  -15.1470 C   0  0  0  0  0  0  0  0  0  0  0  0
  1 15  4  0
  2 12  4  0
  3  1  4  0
  3  2  4  0
  4 17  1  0
  5 14  4  0
  5  2  4  0
  6 11  1  0
  7 18  4  0
  8 10  4  0
  8  5  1  0
  9  4  2  0
 10  3  4  0
 12 19  4  0
 13  7  4  0
 13  8  4  0
 14 16  1  0
 15 19  4  0
 16  4  1  0
 16  6  2  0
 17 11  2  0
 18 14  4  0
M  END
$$$$

     RDKit          3D

 19 22  0  0  0  0  0  0  0  0999 V2000
   -1.3050   -1.2910  -17.1010 C   0  0  0  0  0  0  0  0  0  0  0  0
   -3.6830   -1.9700  -16.9090 C   0  0  0  0  0  0  0  0  0  0  0  0
   -2.6200   -1.2990  -17.5980 C   0  0  0  0  0  0  0  0  0  0  0  0
   -8.1590   -3.2650  -16.2170 C   0  0  0  0  0  0  0  0  0  0  0  0
   -4.8770   -1.6980  -17.7310 C   0  0  0  0  0  0  0  0  0  0  0  0
   -6.0890   -3.1240  -15.5250 O   0  0  0  0  0  0  0  0  0  0  0  0
   -6.6100   -0.8880  -19.8300 C   0  0  0  0  0  0  0  0  0  0  0  0
   -4.4170   -1.0180  -18.8670 C   0  0  0  0  0  0  0  0  0  0  0  0
   -9.4120   -2.9570  -17.0170 C   0  0  0  0  0  0  0  0  0  0  0  0
   -3.0700   -0.7740  -18.7890 N   0  0  0  0  0  0  0  0  0  0  0  0
   -6.7530   -3.9880  -14.7860 N   0  0  0  0  0  0  0  0  0  0  0  0
   -3.4220   -2.6210  -15.7720 C   0  0  0  0  0  0  0  0  0  0  0  0
   -5.2710   -0.5710  -19.9170 C   0  0  0  0  0  0  0  0  0  0  0  0
   -6.2540   -2.0420  -17.6660 C   0  0  0  0  0  0  0  0  0  0  0  0
   -1.0420   -1.9580  -15.8530 C   0  0  0  0  0  0  0  0  0  0  0  0
   -6.8380   -2.7220  -16.4920 C   0  0  0  0  0  0  0  0  0  0  0  0
   -8.0770   -4.0930  -15.1770 N   0  0  0  0  0  0  0  0  0  0  0  0
   -7.1200   -1.6120  -18.6530 C   0  0  0  0  0  0  0  0  0  0  0  0
   -2.0880   -2.6250  -15.1960 C   0  0  0  0  0  0  0  0  0  0  0  0
  1 15  1  0
  2 12  1  0
  3  1  2  0
  3  2  1  0
  4 17  4  0
  5 14  4  0
  5  2  2  0
  6 11  4  0
  7 18  4  0
  8 10  2  0
  8  5  4  0
  9  4  1  0
 10  3  1  0
 12 19  2  0
 13  7  4  0
 13  8  4  0
 14 16  1  0
 15 19  1  0
 16  4  4  0
 16  6  4  0
 17 11  4  0
 18 14  4  0
M  END
$$$$

     RDKit          3D

 19 22  0  0  0  0  0  0  0  0999 V2000
   -1.5380   -0.7720  -17.0610 C   0  0  0  0  0  0  0  0  0  0  0  0
   -3.8110   -1.6490  -17.0730 C   0  0  0  0  0  0  0  0  0  0  0  0
   -2.8100   -1.0240  -17.6650 C   0  0  0  0  0  0  0  0  0  0  0  0
   -8.2350   -3.1180  -16.3240 C   0  0  0  0  0  0  0  0  0  0  0  0
   -5.0460   -1.5520  -17.9110 C   0  0  0  0  0  0  0  0  0  0  0  0
   -6.1430   -3.3720  -15.7270 N   0  0  0  0  0  0  0  0  0  0  0  0
   -6.7730   -0.9310  -19.9880 C   0  0  0  0  0  0  0  0  0  0  0  0
   -4.5670   -0.8190  -19.0160 C   0  0  0  0  0  0  0  0  0  0  0  0
   -9.5160   -2.8430  -16.9720 C   0  0  0  0  0  0  0  0  0  0  0  0
   -3.2530   -0.4900  -18.9000 N   0  0  0  0  0  0  0  0  0  0  0  0
   -6.9110   -4.1240  -14.8260 N   0  0  0  0  0  0  0  0  0  0  0  0
   -3.5270   -2.4480  -15.9270 C   0  0  0  0  0  0  0  0  0  0  0  0
   -5.4330   -0.5270  -20.0550 C   0  0  0  0  0  0  0  0  0  0  0  0
   -6.4040   -1.9430  -17.7820 C   0  0  0  0  0  0  0  0  0  0  0  0
   -1.3460   -1.4420  -15.8270 C   0  0  0  0  0  0  0  0  0  0  0  0
   -6.8590   -2.7870  -16.6340 C   0  0  0  0  0  0  0  0  0  0  0  0
   -8.2140   -3.9160  -15.2350 N   0  0  0  0  0  0  0  0  0  0  0  0
   -7.2400   -1.6530  -18.8680 C   0  0  0  0  0  0  0  0  0  0  0  0
   -2.2420   -2.2260  -15.3260 C   0  0  0  0  0  0  0  0  0  0  0  0
  1 15  1  0
  2 12  1  0
  3  2  1  0
  3  1  2  0
  4 17  4  0
  5 14  4  0
  5  2  2  0
  6 11  4  0
  7 18  4  0
  8 10  2  0
  8  5  4  0
  9  4  1  0
 10  3  1  0
 12 19  2  0
 13  7  4  0
 13  8  4  0
 14 16  1  0
 15 19  1  0
 16  4  4  0
 16  6  4  0
 17 11  4  0
 18 14  4  0
M  END
$$$$

     RDKit          3D

 19 22  0  0  0  0  0  0  0  0999 V2000
   -1.4780   -0.8110  -16.7500 C   0  0  0  0  0  0  0  0  0  0  0  0
   -3.7300   -1.8380  -16.7090 C   0  0  0  0  0  0  0  0  0  0  0  0
   -2.7210   -1.0490  -17.3580 C   0  0  0  0  0  0  0  0  0  0  0  0
   -8.2610   -3.2630  -16.2110 C   0  0  0  0  0  0  0  0  0  0  0  0
   -4.9250   -1.7160  -17.5170 C   0  0  0  0  0  0  0  0  0  0  0  0
   -6.1830   -3.4320  -15.1520 C   0  0  0  0  0  0  0  0  0  0  0  0
   -6.6190   -0.9570  -19.6680 C   0  0  0  0  0  0  0  0  0  0  0  0
   -4.4630   -0.8820  -18.7110 C   0  0  0  0  0  0  0  0  0  0  0  0
   -9.5300   -3.1420  -17.1590 C   0  0  0  0  0  0  0  0  0  0  0  0
   -3.1460   -0.5950  -18.5400 N   0  0  0  0  0  0  0  0  0  0  0  0
   -7.1680   -4.0350  -14.3640 N   0  0  0  0  0  0  0  0  0  0  0  0
   -3.4170   -2.5750  -15.5410 C   0  0  0  0  0  0  0  0  0  0  0  0
   -5.3790   -0.5350  -19.6980 C   0  0  0  0  0  0  0  0  0  0  0  0
   -6.2870   -2.1150  -17.5250 C   0  0  0  0  0  0  0  0  0  0  0  0
   -1.0990   -1.5180  -15.5570 C   0  0  0  0  0  0  0  0  0  0  0  0
   -6.9090   -2.8960  -16.3890 C   0  0  0  0  0  0  0  0  0  0  0  0
   -8.3400   -4.0300  -15.0100 N   0  0  0  0  0  0  0  0  0  0  0  0
   -7.1210   -1.7150  -18.5720 C   0  0  0  0  0  0  0  0  0  0  0  0
   -2.1050   -2.4420  -15.0420 C   0  0  0  0  0  0  0  0  0  0  0  0
  1 15  1  0
  2 12  1  0
  3  1  2  0
  3  2  1  0
  4 17  4  0
  5  2  2  0
  6 11  4  0
  7 18  4  0
  8 10  2  0
  8  5  4  0
  9  4  1  0
 10  3  1  0
 12 19  2  0
 13  7  4  0
 13  8  4  0
 14  5  4  0
 14 16  1  0
 15 19  1  0
 16  4  4  0
 16  6  4  0
 17 11  4  0
 18 14  4  0
M  END
$$$$

     RDKit          3D

 19 22  0  0  0  0  0  0  0  0999 V2000
   -1.3360   -1.1240  -16.7980 C   0  0  0  0  0  0  0  0  0  0  0  0
   -3.6220   -1.9020  -16.8450 C   0  0  0  0  0  0  0  0  0  0  0  0
   -2.5850   -1.1950  -17.5030 C   0  0  0  0  0  0  0  0  0  0  0  0
   -8.2540   -3.0310  -16.5400 C   0  0  0  0  0  0  0  0  0  0  0  0
   -4.8040   -1.6830  -17.7620 C   0  0  0  0  0  0  0  0  0  0  0  0
   -6.3500   -3.1050  -15.3740 C   0  0  0  0  0  0  0  0  0  0  0  0
   -6.4940   -0.7770  -19.8430 C   0  0  0  0  0  0  0  0  0  0  0  0
   -4.3060   -0.9910  -18.8650 C   0  0  0  0  0  0  0  0  0  0  0  0
   -9.4830   -2.8390  -17.5940 Cl  0  0  0  0  0  0  0  0  0  0  0  0
   -2.9730   -0.8300  -18.5990 N   0  0  0  0  0  0  0  0  0  0  0  0
   -7.2350   -3.7620  -14.7270 N   0  0  0  0  0  0  0  0  0  0  0  0
   -3.4500   -2.5590  -15.6220 C   0  0  0  0  0  0  0  0  0  0  0  0
   -5.0880   -0.5180  -19.8660 C   0  0  0  0  0  0  0  0  0  0  0  0
   -6.2270   -1.9750  -17.6920 C   0  0  0  0  0  0  0  0  0  0  0  0
   -1.1910   -1.6800  -15.5590 C   0  0  0  0  0  0  0  0  0  0  0  0
   -6.9080   -2.6630  -16.5700 C   0  0  0  0  0  0  0  0  0  0  0  0
   -8.3700   -3.7390  -15.3080 N   0  0  0  0  0  0  0  0  0  0  0  0
   -6.9790   -1.5330  -18.7450 C   0  0  0  0  0  0  0  0  0  0  0  0
   -2.2190   -2.4340  -14.9850 C   0  0  0  0  0  0  0  0  0  0  0  0
  1 15  1  0
  2 12  1  0
  3  2  1  0
  3  1  2  0
  4 17  4  0
  5 14  4  0
  5  2  2  0
  6 11  4  0
  7 18  4  0
  8 10  2  0
  8  5  4  0
  9  4  1  0
 10  3  1  0
 12 19  2  0
 13  7  4  0
 13  8  4  0
 14 16  1  0
 15 19  1  0
 16  4  4  0
 16  6  4  0
 17 11  4  0
 18 14  4  0
M  END
$$$$

     RDKit          3D

 19 22  0  0  0  0  0  0  0  0999 V2000
   -1.3240   -0.9750  -17.0970 C   0  0  0  0  0  0  0  0  0  0  0  0
   -3.6590   -1.6820  -17.0370 C   0  0  0  0  0  0  0  0  0  0  0  0
   -2.6400   -1.1450  -17.6750 C   0  0  0  0  0  0  0  0  0  0  0  0
   -8.2800   -2.9420  -16.4830 C   0  0  0  0  0  0  0  0  0  0  0  0
   -4.9120   -1.5480  -17.9360 C   0  0  0  0  0  0  0  0  0  0  0  0
   -6.2020   -2.9700  -15.6820 N   0  0  0  0  0  0  0  0  0  0  0  0
   -6.5610   -0.9300  -20.0220 C   0  0  0  0  0  0  0  0  0  0  0  0
   -4.4360   -0.9360  -19.0650 C   0  0  0  0  0  0  0  0  0  0  0  0
   -9.3800   -2.6540  -17.1970 N   0  0  0  0  0  0  0  0  0  0  0  0
   -3.1110   -0.7280  -18.9860 N   0  0  0  0  0  0  0  0  0  0  0  0
   -7.0450   -3.7210  -14.8700 N   0  0  0  0  0  0  0  0  0  0  0  0
   -3.5190   -2.2990  -15.7910 C   0  0  0  0  0  0  0  0  0  0  0  0
   -5.2970   -0.6130  -20.1180 N   0  0  0  0  0  0  0  0  0  0  0  0
   -6.2590   -1.8390  -17.8150 C   0  0  0  0  0  0  0  0  0  0  0  0
   -1.1930   -1.5950  -15.9230 C   0  0  0  0  0  0  0  0  0  0  0  0
   -6.9320   -2.5630  -16.6740 C   0  0  0  0  0  0  0  0  0  0  0  0
   -8.3690   -3.6750  -15.3600 N   0  0  0  0  0  0  0  0  0  0  0  0
   -7.1010   -1.5670  -18.9260 C   0  0  0  0  0  0  0  0  0  0  0  0
   -2.2350   -2.2190  -15.2530 C   0  0  0  0  0  0  0  0  0  0  0  0
  1 15  4  0
  2 12  4  0
  3  1  4  0
  3  2  4  0
  4 17  4  0
  5 14  2  0
  5  2  1  0
  6 11  4  0
  7 18  1  0
  8 10  2  0
  8  5  1  0
  9  4  1  0
 10  3  1  0
 12 19  4  0
 13  7  2  0
 13  8  1  0
 14 16  1  0
 15 19  4  0
 16  4  4  0
 16  6  4  0
 17 11  4  0
 18 14  1  0
M  END
$$$$

     RDKit          3D

 19 22  0  0  0  0  0  0  0  0999 V2000
   -1.2220   -0.4310  -17.1410 C   0  0  0  0  0  0  0  0  0  0  0  0
   -3.4670   -1.6200  -17.0120 C   0  0  0  0  0  0  0  0  0  0  0  0
   -2.4200   -0.8450  -17.7380 C   0  0  0  0  0  0  0  0  0  0  0  0
   -8.1790   -3.0110  -16.5290 C   0  0  0  0  0  0  0  0  0  0  0  0
   -4.7510   -1.5260  -17.8330 C   0  0  0  0  0  0  0  0  0  0  0  0
   -6.1470   -2.9440  -15.5300 N   0  0  0  0  0  0  0  0  0  0  0  0
   -6.5660   -0.8780  -19.8590 C   0  0  0  0  0  0  0  0  0  0  0  0
   -4.3310   -0.8070  -19.0640 C   0  0  0  0  0  0  0  0  0  0  0  0
   -9.4390   -2.8030  -17.2700 C   0  0  0  0  0  0  0  0  0  0  0  0
   -2.9620   -0.5980  -18.9480 N   0  0  0  0  0  0  0  0  0  0  0  0
   -7.0150   -3.6480  -14.8690 N   0  0  0  0  0  0  0  0  0  0  0  0
   -3.0260   -2.2810  -15.8190 C   0  0  0  0  0  0  0  0  0  0  0  0
   -5.2740   -0.6020  -19.9730 N   0  0  0  0  0  0  0  0  0  0  0  0
   -6.2040   -1.7770  -17.7520 C   0  0  0  0  0  0  0  0  0  0  0  0
   -0.9040   -1.1350  -15.8630 C   0  0  0  0  0  0  0  0  0  0  0  0
   -6.8550   -2.4710  -16.6660 C   0  0  0  0  0  0  0  0  0  0  0  0
   -8.1670   -3.7260  -15.4260 N   0  0  0  0  0  0  0  0  0  0  0  0
   -7.0200   -1.4130  -18.7830 N   0  0  0  0  0  0  0  0  0  0  0  0
   -1.8520   -2.0630  -15.2600 C   0  0  0  0  0  0  0  0  0  0  0  0
  1 15  4  0
  2 12  4  0
  3  1  4  0
  3  2  4  0
  4 17  4  0
  5 14  4  0
  5  2  4  0
  6 11  4  0
  7 18  4  0
  8 10  4  0
  8  5  1  0
  9  4  1  0
 10  3  4  0
 12 19  4  0
 13  7  4  0
 13  8  4  0
 14 16  1  0
 15 19  4  0
 16  4  4  0
 16  6  4  0
 17 11  4  0
 18 14  4  0
M  END
$$$$

     RDKit          3D

 19 22  0  0  0  0  0  0  0  0999 V2000
   -1.2130   -1.0780  -16.9940 C   0  0  0  0  0  0  0  0  0  0  0  0
   -3.4440   -1.8680  -16.9010 C   0  0  0  0  0  0  0  0  0  0  0  0
   -2.5040   -1.1450  -17.5310 C   0  0  0  0  0  0  0  0  0  0  0  0
   -8.0490   -3.1120  -16.4020 C   0  0  0  0  0  0  0  0  0  0  0  0
   -4.7410   -1.6480  -17.6900 C   0  0  0  0  0  0  0  0  0  0  0  0
   -5.9990   -3.2810  -15.5130 N   0  0  0  0  0  0  0  0  0  0  0  0
   -6.4080   -0.8940  -19.5100 C   0  0  0  0  0  0  0  0  0  0  0  0
   -4.2720   -0.8650  -18.8230 C   0  0  0  0  0  0  0  0  0  0  0  0
   -9.0320   -2.9800  -17.1520 O   0  0  0  0  0  0  0  0  0  0  0  0
   -2.9380   -0.6020  -18.7650 N   0  0  0  0  0  0  0  0  0  0  0  0
   -6.9010   -4.0230  -14.7070 N   0  0  0  0  0  0  0  0  0  0  0  0
   -3.2370   -2.4700  -15.6970 C   0  0  0  0  0  0  0  0  0  0  0  0
   -5.2100   -0.5380  -19.7670 N   0  0  0  0  0  0  0  0  0  0  0  0
   -6.0680   -1.9730  -17.6320 C   0  0  0  0  0  0  0  0  0  0  0  0
   -0.9900   -1.6950  -15.7400 C   0  0  0  0  0  0  0  0  0  0  0  0
   -6.6570   -2.7440  -16.5090 C   0  0  0  0  0  0  0  0  0  0  0  0
   -8.1110   -3.9570  -15.2110 N   0  0  0  0  0  0  0  0  0  0  0  0
   -6.8950   -1.5990  -18.5990 N   0  0  0  0  0  0  0  0  0  0  0  0
   -2.0240   -2.3810  -15.1540 C   0  0  0  0  0  0  0  0  0  0  0  0
  1 15  4  0
  2 12  4  0
  3  1  4  0
  3  2  4  0
  4 17  1  0
  5 14  4  0
  5  2  4  0
  6 11  1  0
  7 18  4  0
  8 10  4  0
  8  5  1  0
  9  4  2  0
 10  3  4  0
 12 19  4  0
 13  7  4  0
 13  8  4  0
 14 16  1  0
 15 19  4  0
 16  4  1  0
 16  6  2  0
 17 11  2  0
 18 14  4  0
M  END
$$$$

     RDKit          3D

 19 22  0  0  0  0  0  0  0  0999 V2000
   -1.2310   -0.7800  -16.8790 C   0  0  0  0  0  0  0  0  0  0  0  0
   -3.4870   -1.8360  -16.9610 C   0  0  0  0  0  0  0  0  0  0  0  0
   -2.4890   -0.8260  -17.4620 C   0  0  0  0  0  0  0  0  0  0  0  0
   -7.8970   -2.9140  -16.3650 C   0  0  0  0  0  0  0  0  0  0  0  0
   -4.6300   -1.5420  -17.8160 C   0  0  0  0  0  0  0  0  0  0  0  0
   -5.8690   -3.0400  -15.5420 N   0  0  0  0  0  0  0  0  0  0  0  0
   -6.3380   -0.8410  -19.8360 C   0  0  0  0  0  0  0  0  0  0  0  0
   -4.2390   -0.8140  -18.8600 C   0  0  0  0  0  0  0  0  0  0  0  0
   -9.1020   -2.7330  -17.2230 C   0  0  0  0  0  0  0  0  0  0  0  0
   -2.9210   -0.4730  -18.6810 N   0  0  0  0  0  0  0  0  0  0  0  0
   -6.6840   -3.6870  -14.7520 C   0  0  0  0  0  0  0  0  0  0  0  0
   -3.1300   -2.7420  -15.9820 C   0  0  0  0  0  0  0  0  0  0  0  0
   -5.0990   -0.4930  -19.8900 N   0  0  0  0  0  0  0  0  0  0  0  0
   -5.9940   -1.8430  -17.6980 C   0  0  0  0  0  0  0  0  0  0  0  0
   -0.8850   -1.6050  -15.7770 C   0  0  0  0  0  0  0  0  0  0  0  0
   -6.5030   -2.5870  -16.5880 C   0  0  0  0  0  0  0  0  0  0  0  0
   -7.9410   -3.6250  -15.2250 N   0  0  0  0  0  0  0  0  0  0  0  0
   -6.8500   -1.4470  -18.7160 N   0  0  0  0  0  0  0  0  0  0  0  0
   -1.8320   -2.6090  -15.3530 C   0  0  0  0  0  0  0  0  0  0  0  0
  1 15  4  0
  2 12  4  0
  3  2  4  0
  3  1  4  0
  4 17  4  0
  5 14  4  0
  5  2  4  0
  6 11  4  0
  7 18  4  0
  8 10  4  0
  8  5  1  0
  9  4  1  0
 10  3  4  0
 12 19  4  0
 13  7  4  0
 13  8  4  0
 14 16  1  0
 15 19  4  0
 16  4  4  0
 16  6  4  0
 17 11  4  0
 18 14  4  0
M  END
$$$$

     RDKit          3D

 19 22  0  0  0  0  0  0  0  0999 V2000
   -1.1930   -1.4340  -17.0760 C   0  0  0  0  0  0  0  0  0  0  0  0
   -3.5820   -1.9800  -16.8400 C   0  0  0  0  0  0  0  0  0  0  0  0
   -2.4680   -1.3270  -17.5700 C   0  0  0  0  0  0  0  0  0  0  0  0
   -8.1130   -3.1400  -16.1220 C   0  0  0  0  0  0  0  0  0  0  0  0
   -4.7690   -1.7640  -17.6930 C   0  0  0  0  0  0  0  0  0  0  0  0
   -5.9960   -3.4000  -15.5590 N   0  0  0  0  0  0  0  0  0  0  0  0
   -6.5370   -0.9050  -19.7180 C   0  0  0  0  0  0  0  0  0  0  0  0
   -4.2860   -1.0760  -18.8210 C   0  0  0  0  0  0  0  0  0  0  0  0
   -9.4180   -2.8780  -16.7980 C   0  0  0  0  0  0  0  0  0  0  0  0
   -2.9060   -0.8310  -18.6850 N   0  0  0  0  0  0  0  0  0  0  0  0
   -6.7640   -4.0520  -14.5770 N   0  0  0  0  0  0  0  0  0  0  0  0
   -3.3330   -2.6460  -15.5900 C   0  0  0  0  0  0  0  0  0  0  0  0
   -5.1930   -0.6060  -19.8780 C   0  0  0  0  0  0  0  0  0  0  0  0
   -6.1980   -2.1260  -17.6030 C   0  0  0  0  0  0  0  0  0  0  0  0
   -0.9510   -2.1620  -15.8220 C   0  0  0  0  0  0  0  0  0  0  0  0
   -6.7450   -2.8460  -16.4190 C   0  0  0  0  0  0  0  0  0  0  0  0
   -8.0760   -3.8240  -15.0040 N   0  0  0  0  0  0  0  0  0  0  0  0
   -7.0450   -1.6090  -18.6280 C   0  0  0  0  0  0  0  0  0  0  0  0
   -2.0250   -2.6850  -15.0980 C   0  0  0  0  0  0  0  0  0  0  0  0
  1 15  1  0
  2 12  1  0
  3  1  2  0
  3  2  1  0
  4 17  4  0
  5 14  4  0
  5  2  2  0
  6 11  4  0
  7 18  4  0
  8 10  2  0
  8  5  4  0
  9  4  1  0
 10  3  1  0
 12 19  2  0
 13  7  4  0
 13  8  4  0
 14 16  1  0
 15 19  1  0
 16  4  4  0
 16  6  4  0
 17 11  4  0
 18 14  4  0
M  END
$$$$

     RDKit          3D

 19 22  0  0  0  0  0  0  0  0999 V2000
   -1.1960   -0.8710  -16.9770 C   0  0  0  0  0  0  0  0  0  0  0  0
   -3.5890   -1.7940  -16.8370 C   0  0  0  0  0  0  0  0  0  0  0  0
   -2.4750   -1.1130  -17.5560 C   0  0  0  0  0  0  0  0  0  0  0  0
   -8.1570   -3.0130  -16.3100 C   0  0  0  0  0  0  0  0  0  0  0  0
   -4.7340   -1.6760  -17.6590 C   0  0  0  0  0  0  0  0  0  0  0  0
   -6.1060   -3.4520  -15.4630 N   0  0  0  0  0  0  0  0  0  0  0  0
   -6.5710   -0.9700  -19.7700 C   0  0  0  0  0  0  0  0  0  0  0  0
   -4.3630   -0.9360  -18.9070 C   0  0  0  0  0  0  0  0  0  0  0  0
   -9.2950   -2.5900  -17.1160 C   0  0  0  0  0  0  0  0  0  0  0  0
   -3.0080   -0.6130  -18.7470 N   0  0  0  0  0  0  0  0  0  0  0  0
   -7.0330   -4.0580  -14.6950 N   0  0  0  0  0  0  0  0  0  0  0  0
   -3.2650   -2.4770  -15.6260 C   0  0  0  0  0  0  0  0  0  0  0  0
   -5.2280   -0.6280  -19.9200 C   0  0  0  0  0  0  0  0  0  0  0  0
   -6.1480   -1.9830  -17.5720 C   0  0  0  0  0  0  0  0  0  0  0  0
   -1.0180   -1.4520  -15.6910 C   0  0  0  0  0  0  0  0  0  0  0  0
   -6.7210   -2.7840  -16.4300 C   0  0  0  0  0  0  0  0  0  0  0  0
   -8.2650   -3.7030  -15.0970 N   0  0  0  0  0  0  0  0  0  0  0  0
   -6.9900   -1.6460  -18.5860 C   0  0  0  0  0  0  0  0  0  0  0  0
   -1.9700   -2.2310  -15.0390 C   0  0  0  0  0  0  0  0  0  0  0  0
  1 15  1  0
  2 12  1  0
  3  1  2  0
  3  2  1  0
  4 17  4  0
  5 14  4  0
  5  2  2  0
  6 11  4  0
  7 18  4  0
  8 10  2  0
  8  5  4  0
  9  4  1  0
 10  3  1  0
 12 19  2  0
 13  7  4  0
 13  8  4  0
 14 16  1  0
 15 19  1  0
 16  4  4  0
 16  6  4  0
 17 11  4  0
 18 14  4  0
M  END
$$$$

     RDKit          3D

 19 22  0  0  0  0  0  0  0  0999 V2000
   -1.3100   -0.7130  -16.8030 C   0  0  0  0  0  0  0  0  0  0  0  0
   -3.5160   -1.7290  -16.7500 C   0  0  0  0  0  0  0  0  0  0  0  0
   -2.6130   -0.9110  -17.3710 C   0  0  0  0  0  0  0  0  0  0  0  0
   -8.0380   -3.2430  -16.2910 C   0  0  0  0  0  0  0  0  0  0  0  0
   -4.7560   -1.6520  -17.6030 C   0  0  0  0  0  0  0  0  0  0  0  0
   -5.9960   -3.1070  -15.4520 C   0  0  0  0  0  0  0  0  0  0  0  0
   -6.5630   -0.9930  -19.6080 C   0  0  0  0  0  0  0  0  0  0  0  0
   -4.4050   -0.8260  -18.6990 C   0  0  0  0  0  0  0  0  0  0  0  0
   -9.1640   -3.1440  -17.0780 N   0  0  0  0  0  0  0  0  0  0  0  0
   -3.1020   -0.3900  -18.5520 N   0  0  0  0  0  0  0  0  0  0  0  0
   -6.9460   -4.0890  -14.6330 N   0  0  0  0  0  0  0  0  0  0  0  0
   -3.1930   -2.4600  -15.6280 C   0  0  0  0  0  0  0  0  0  0  0  0
   -5.2620   -0.5530  -19.7380 C   0  0  0  0  0  0  0  0  0  0  0  0
   -6.1610   -2.0480  -17.5010 C   0  0  0  0  0  0  0  0  0  0  0  0
   -1.0160   -1.3830  -15.5990 C   0  0  0  0  0  0  0  0  0  0  0  0
   -6.6860   -2.8090  -16.4510 C   0  0  0  0  0  0  0  0  0  0  0  0
   -8.1650   -4.0580  -15.2330 N   0  0  0  0  0  0  0  0  0  0  0  0
   -6.9600   -1.7410  -18.5460 C   0  0  0  0  0  0  0  0  0  0  0  0
   -1.9360   -2.2200  -15.0330 C   0  0  0  0  0  0  0  0  0  0  0  0
  1 15  1  0
  2 12  1  0
  3  1  2  0
  3  2  1  0
  4 17  4  0
  5 14  4  0
  5  2  2  0
  6 11  4  0
  7 18  4  0
  8 10  2  0
  8  5  4  0
  9  4  1  0
 10  3  1  0
 12 19  2  0
 13  7  4  0
 13  8  4  0
 14 16  1  0
 15 19  1  0
 16  4  4  0
 16  6  4  0
 17 11  4  0
 18 14  4  0
M  END
$$$$

     RDKit          3D

 19 22  0  0  0  0  0  0  0  0999 V2000
   -1.2320   -1.1500  -16.9280 C   0  0  0  0  0  0  0  0  0  0  0  0
   -3.5660   -1.8890  -17.0390 C   0  0  0  0  0  0  0  0  0  0  0  0
   -2.4540   -1.2050  -17.5460 C   0  0  0  0  0  0  0  0  0  0  0  0
   -8.2300   -2.8290  -16.5600 C   0  0  0  0  0  0  0  0  0  0  0  0
   -4.6660   -1.6230  -17.8280 C   0  0  0  0  0  0  0  0  0  0  0  0
   -6.2260   -3.0570  -15.6200 C   0  0  0  0  0  0  0  0  0  0  0  0
   -6.2680   -0.8030  -19.9490 C   0  0  0  0  0  0  0  0  0  0  0  0
   -4.1720   -0.9120  -18.9340 C   0  0  0  0  0  0  0  0  0  0  0  0
   -9.4180   -2.7930  -17.4670 C   0  0  0  0  0  0  0  0  0  0  0  0
   -2.8130   -0.6340  -18.7610 N   0  0  0  0  0  0  0  0  0  0  0  0
   -7.0980   -3.6210  -14.7620 N   0  0  0  0  0  0  0  0  0  0  0  0
   -3.4870   -2.6740  -15.9320 C   0  0  0  0  0  0  0  0  0  0  0  0
   -4.9050   -0.5680  -19.9810 N   0  0  0  0  0  0  0  0  0  0  0  0
   -6.0800   -1.8630  -17.7730 C   0  0  0  0  0  0  0  0  0  0  0  0
   -1.1150   -1.9110  -15.7530 C   0  0  0  0  0  0  0  0  0  0  0  0
   -6.8330   -2.5520  -16.7130 C   0  0  0  0  0  0  0  0  0  0  0  0
   -8.4280   -3.4740  -15.3410 N   0  0  0  0  0  0  0  0  0  0  0  0
   -6.7960   -1.4070  -18.9190 C   0  0  0  0  0  0  0  0  0  0  0  0
   -2.2220   -2.6210  -15.3030 C   0  0  0  0  0  0  0  0  0  0  0  0
  1 15  4  0
  2 12  4  0
  3  2  4  0
  3  1  4  0
  4 17  4  0
  5  8  1  0
  5 14  1  0
  5  2  1  0
  6 11  4  0
  7 18  1  0
  8 10  2  0
  9  4  1  0
 10  3  1  0
 12 19  4  0
 13  7  2  0
 13  8  1  0
 14 16  1  0
 15 19  4  0
 16  4  4  0
 16  6  4  0
 17 11  4  0
 18 14  2  0
M  END
$$$$

     RDKit          3D

 19 22  0  0  0  0  0  0  0  0999 V2000
   -1.1460   -1.0720  -16.8540 C   0  0  0  0  0  0  0  0  0  0  0  0
   -3.4850   -1.7340  -16.8630 C   0  0  0  0  0  0  0  0  0  0  0  0
   -2.4200   -1.1700  -17.4520 C   0  0  0  0  0  0  0  0  0  0  0  0
   -8.0060   -2.6980  -16.3410 C   0  0  0  0  0  0  0  0  0  0  0  0
   -4.5920   -1.5310  -17.7530 C   0  0  0  0  0  0  0  0  0  0  0  0
   -5.9940   -3.1580  -15.6290 C   0  0  0  0  0  0  0  0  0  0  0  0
   -6.2080   -0.9310  -19.9080 C   0  0  0  0  0  0  0  0  0  0  0  0
   -4.0780   -1.0160  -18.9260 C   0  0  0  0  0  0  0  0  0  0  0  0
   -9.1990   -2.1060  -16.9840 C   0  0  0  0  0  0  0  0  0  0  0  0
   -2.7950   -0.7460  -18.6840 N   0  0  0  0  0  0  0  0  0  0  0  0
   -6.9190   -3.8920  -14.9130 N   0  0  0  0  0  0  0  0  0  0  0  0
   -3.2350   -2.4710  -15.6130 C   0  0  0  0  0  0  0  0  0  0  0  0
   -4.8900   -0.6680  -19.9580 N   0  0  0  0  0  0  0  0  0  0  0  0
   -5.9570   -1.7520  -17.7010 C   0  0  0  0  0  0  0  0  0  0  0  0
   -0.9390   -1.6760  -15.6720 C   0  0  0  0  0  0  0  0  0  0  0  0
   -6.5930   -2.4620  -16.6300 C   0  0  0  0  0  0  0  0  0  0  0  0
   -8.1540   -3.5520  -15.3730 N   0  0  0  0  0  0  0  0  0  0  0  0
   -6.7790   -1.4310  -18.8070 C   0  0  0  0  0  0  0  0  0  0  0  0
   -1.9770   -2.3860  -15.0410 C   0  0  0  0  0  0  0  0  0  0  0  0
  1 15  4  0
  2 12  4  0
  3  2  4  0
  3  1  4  0
  4 17  4  0
  5  8  1  0
  5 14  1  0
  5  2  1  0
  6 11  4  0
  7 18  1  0
  8 10  2  0
  9  4  1  0
 10  3  1  0
 12 19  4  0
 13  7  2  0
 13  8  1  0
 14 16  1  0
 15 19  4  0
 16  4  4  0
 16  6  4  0
 17 11  4  0
 18 14  2  0
M  END
$$$$

     RDKit          3D

 19 22  0  0  0  0  0  0  0  0999 V2000
   -1.3260   -1.1920  -16.6140 C   0  0  0  0  0  0  0  0  0  0  0  0
   -3.6690   -1.8560  -16.7740 C   0  0  0  0  0  0  0  0  0  0  0  0
   -2.5710   -1.2970  -17.3640 C   0  0  0  0  0  0  0  0  0  0  0  0
   -8.2420   -2.9840  -16.4090 C   0  0  0  0  0  0  0  0  0  0  0  0
   -4.8610   -1.6280  -17.6560 C   0  0  0  0  0  0  0  0  0  0  0  0
   -6.2650   -3.3670  -15.5520 C   0  0  0  0  0  0  0  0  0  0  0  0
   -6.5760   -0.8580  -19.6170 C   0  0  0  0  0  0  0  0  0  0  0  0
   -4.3470   -1.0000  -18.7650 C   0  0  0  0  0  0  0  0  0  0  0  0
   -9.3160   -2.6100  -17.3100 C   0  0  0  0  0  0  0  0  0  0  0  0
   -2.9570   -0.8880  -18.6310 N   0  0  0  0  0  0  0  0  0  0  0  0
   -7.3000   -4.0090  -14.8220 N   0  0  0  0  0  0  0  0  0  0  0  0
   -3.5510   -2.3940  -15.4770 C   0  0  0  0  0  0  0  0  0  0  0  0
   -5.2510   -0.6280  -19.8070 C   0  0  0  0  0  0  0  0  0  0  0  0
   -6.2150   -1.9730  -17.5820 C   0  0  0  0  0  0  0  0  0  0  0  0
   -1.3310   -1.8150  -15.3900 C   0  0  0  0  0  0  0  0  0  0  0  0
   -6.8580   -2.7380  -16.5090 C   0  0  0  0  0  0  0  0  0  0  0  0
   -8.5350   -3.7850  -15.3650 N   0  0  0  0  0  0  0  0  0  0  0  0
   -7.0420   -1.5000  -18.5110 N   0  0  0  0  0  0  0  0  0  0  0  0
   -2.3830   -2.4150  -14.8480 N   0  0  0  0  0  0  0  0  0  0  0  0
  1 15  1  0
  2 12  1  0
  3  2  1  0
  3  1  2  0
  4 17  4  0
  5 14  4  0
  5  2  2  0
  6 11  4  0
  7 18  4  0
  8 10  2  0
  8  5  4  0
  9  4  1  0
 10  3  1  0
 12 19  2  0
 13  7  4  0
 13  8  4  0
 14 16  1  0
 15 19  1  0
 16  4  4  0
 16  6  4  0
 17 11  4  0
 18 14  4  0
M  END
$$$$

     RDKit          3D

 19 22  0  0  0  0  0  0  0  0999 V2000
   -1.0980   -1.2580  -17.0930 C   0  0  0  0  0  0  0  0  0  0  0  0
   -3.5460   -1.8080  -16.9120 C   0  0  0  0  0  0  0  0  0  0  0  0
   -2.4420   -1.1960  -17.5910 C   0  0  0  0  0  0  0  0  0  0  0  0
   -8.0370   -2.8100  -16.4130 C   0  0  0  0  0  0  0  0  0  0  0  0
   -4.6630   -1.5070  -17.7560 C   0  0  0  0  0  0  0  0  0  0  0  0
   -6.0390   -2.9320  -15.3960 N   0  0  0  0  0  0  0  0  0  0  0  0
   -6.4430   -0.5180  -19.6730 C   0  0  0  0  0  0  0  0  0  0  0  0
   -4.2030   -0.8070  -18.8440 C   0  0  0  0  0  0  0  0  0  0  0  0
   -9.2180   -2.6940  -17.3400 C   0  0  0  0  0  0  0  0  0  0  0  0
   -2.8870   -0.6260  -18.7510 N   0  0  0  0  0  0  0  0  0  0  0  0
   -7.0570   -3.5730  -14.6190 C   0  0  0  0  0  0  0  0  0  0  0  0
   -3.3480   -2.4440  -15.6440 C   0  0  0  0  0  0  0  0  0  0  0  0
   -5.0600   -0.2730  -19.7790 C   0  0  0  0  0  0  0  0  0  0  0  0
   -6.0420   -1.7600  -17.5430 C   0  0  0  0  0  0  0  0  0  0  0  0
   -0.9340   -1.9120  -15.9080 C   0  0  0  0  0  0  0  0  0  0  0  0
   -6.7140   -2.5300  -16.5180 C   0  0  0  0  0  0  0  0  0  0  0  0
   -8.2830   -3.4650  -15.2540 N   0  0  0  0  0  0  0  0  0  0  0  0
   -6.9250   -1.2110  -18.5850 C   0  0  0  0  0  0  0  0  0  0  0  0
   -2.0190   -2.4270  -15.2020 C   0  0  0  0  0  0  0  0  0  0  0  0
  1 15  1  0
  2 12  1  0
  3  1  2  0
  3  2  1  0
  4 17  4  0
  5 14  4  0
  5  2  2  0
  6 11  4  0
  7 18  4  0
  8 10  2  0
  8  5  4  0
  9  4  1  0
 10  3  1  0
 12 19  2  0
 13  7  4  0
 13  8  4  0
 14 16  1  0
 15 19  1  0
 16  4  4  0
 16  6  4  0
 17 11  4  0
 18 14  4  0
M  END
$$$$

     RDKit          3D

 19 22  0  0  0  0  0  0  0  0999 V2000
   -1.2640   -1.1490  -17.0430 C   0  0  0  0  0  0  0  0  0  0  0  0
   -3.6370   -1.7210  -16.9850 C   0  0  0  0  0  0  0  0  0  0  0  0
   -2.5170   -1.1750  -17.5740 C   0  0  0  0  0  0  0  0  0  0  0  0
   -8.1540   -2.8350  -16.5290 C   0  0  0  0  0  0  0  0  0  0  0  0
   -4.7920   -1.4800  -17.8750 C   0  0  0  0  0  0  0  0  0  0  0  0
   -5.9750   -2.7640  -15.6950 N   0  0  0  0  0  0  0  0  0  0  0  0
   -6.4850   -0.9140  -20.0820 C   0  0  0  0  0  0  0  0  0  0  0  0
   -4.3030   -0.8730  -18.9430 C   0  0  0  0  0  0  0  0  0  0  0  0
   -9.3500   -2.6610  -17.4280 C   0  0  0  0  0  0  0  0  0  0  0  0
   -2.9300   -0.7020  -18.8220 N   0  0  0  0  0  0  0  0  0  0  0  0
   -6.9650   -3.3820  -14.8890 O   0  0  0  0  0  0  0  0  0  0  0  0
   -3.3540   -2.4370  -15.7170 C   0  0  0  0  0  0  0  0  0  0  0  0
   -5.1840   -0.5730  -20.0110 C   0  0  0  0  0  0  0  0  0  0  0  0
   -6.0820   -1.8090  -17.7740 C   0  0  0  0  0  0  0  0  0  0  0  0
   -1.0350   -1.7770  -15.8460 C   0  0  0  0  0  0  0  0  0  0  0  0
   -6.8550   -2.4240  -16.6980 C   0  0  0  0  0  0  0  0  0  0  0  0
   -8.0370   -3.3490  -15.4490 N   0  0  0  0  0  0  0  0  0  0  0  0
   -6.9680   -1.5010  -18.9270 C   0  0  0  0  0  0  0  0  0  0  0  0
   -2.0720   -2.4080  -15.1880 C   0  0  0  0  0  0  0  0  0  0  0  0
  1 15  1  0
  2 12  1  0
  3  1  2  0
  3  2  1  0
  4 17  4  0
  5 14  4  0
  5  2  2  0
  6 11  4  0
  7 13  4  0
  7 18  4  0
  8 10  2  0
  8  5  4  0
  9  4  1  0
 10  3  1  0
 12 19  2  0
 13  8  4  0
 14 16  1  0
 15 19  1  0
 16  4  4  0
 16  6  4  0
 17 11  4  0
 18 14  4  0
M  END
$$$$

     RDKit          3D

 19 22  0  0  0  0  0  0  0  0999 V2000
   -1.2790   -1.4790  -16.8020 C   0  0  0  0  0  0  0  0  0  0  0  0
   -3.7110   -1.7750  -16.7450 C   0  0  0  0  0  0  0  0  0  0  0  0
   -2.5570   -1.2650  -17.4030 C   0  0  0  0  0  0  0  0  0  0  0  0
   -8.1770   -2.9770  -16.4920 C   0  0  0  0  0  0  0  0  0  0  0  0
   -4.8150   -1.5890  -17.6330 C   0  0  0  0  0  0  0  0  0  0  0  0
   -6.2600   -3.2240  -15.4370 C   0  0  0  0  0  0  0  0  0  0  0  0
   -6.4880   -0.8060  -19.7790 C   0  0  0  0  0  0  0  0  0  0  0  0
   -4.3290   -0.9240  -18.7560 C   0  0  0  0  0  0  0  0  0  0  0  0
   -9.1270   -2.6460  -17.2870 O   0  0  0  0  0  0  0  0  0  0  0  0
   -2.9730   -0.7770  -18.5400 N   0  0  0  0  0  0  0  0  0  0  0  0
   -7.2490   -3.9740  -14.7930 O   0  0  0  0  0  0  0  0  0  0  0  0
   -3.5250   -2.3770  -15.4210 C   0  0  0  0  0  0  0  0  0  0  0  0
   -5.1110   -0.4860  -19.7480 C   0  0  0  0  0  0  0  0  0  0  0  0
   -6.2040   -1.9300  -17.6330 C   0  0  0  0  0  0  0  0  0  0  0  0
   -1.1240   -1.8530  -15.5290 C   0  0  0  0  0  0  0  0  0  0  0  0
   -6.8090   -2.6450  -16.5850 C   0  0  0  0  0  0  0  0  0  0  0  0
   -8.4400   -3.7600  -15.4660 N   0  0  0  0  0  0  0  0  0  0  0  0
   -6.9820   -1.5000  -18.6970 C   0  0  0  0  0  0  0  0  0  0  0  0
   -2.2320   -2.3820  -14.8470 C   0  0  0  0  0  0  0  0  0  0  0  0
  1 15  1  0
  2 12  1  0
  3  1  2  0
  3  2  1  0
  4 17  4  0
  5 14  4  0
  5  2  2  0
  6 11  4  0
  7 13  4  0
  7 18  4  0
  8 10  2  0
  8  5  4  0
  9  4  2  0
 10  3  1  0
 12 19  2  0
 13  8  4  0
 14 16  1  0
 15 19  1  0
 16  4  4  0
 16  6  4  0
 17 11  4  0
 18 14  4  0
M  END
$$$$

     RDKit          3D

 19 22  0  0  0  0  0  0  0  0999 V2000
   -1.4920   -1.1950  -16.9350 C   0  0  0  0  0  0  0  0  0  0  0  0
   -3.7300   -1.9810  -16.9260 C   0  0  0  0  0  0  0  0  0  0  0  0
   -2.6770   -1.3430  -17.6080 C   0  0  0  0  0  0  0  0  0  0  0  0
   -8.4940   -3.2250  -16.4620 C   0  0  0  0  0  0  0  0  0  0  0  0
   -4.8860   -1.7580  -17.6640 C   0  0  0  0  0  0  0  0  0  0  0  0
   -6.5220   -3.0810  -15.3490 N   0  0  0  0  0  0  0  0  0  0  0  0
   -6.7360   -0.8710  -19.6150 N   0  0  0  0  0  0  0  0  0  0  0  0
   -4.4570   -1.1270  -18.9150 C   0  0  0  0  0  0  0  0  0  0  0  0
   -9.6140   -3.0170  -17.3720 C   0  0  0  0  0  0  0  0  0  0  0  0
   -3.1110   -0.9960  -18.8730 N   0  0  0  0  0  0  0  0  0  0  0  0
   -7.3890   -3.9830  -14.6700 N   0  0  0  0  0  0  0  0  0  0  0  0
   -3.5690   -2.5620  -15.7080 C   0  0  0  0  0  0  0  0  0  0  0  0
   -5.4060   -0.7400  -19.8170 N   0  0  0  0  0  0  0  0  0  0  0  0
   -6.3640   -1.9490  -17.5680 C   0  0  0  0  0  0  0  0  0  0  0  0
   -1.2910   -1.8410  -15.7190 C   0  0  0  0  0  0  0  0  0  0  0  0
   -7.1030   -2.7450  -16.4780 C   0  0  0  0  0  0  0  0  0  0  0  0
   -8.5810   -4.0360  -15.3480 N   0  0  0  0  0  0  0  0  0  0  0  0
   -7.0960   -1.5010  -18.5230 N   0  0  0  0  0  0  0  0  0  0  0  0
   -2.3470   -2.5000  -15.1090 C   0  0  0  0  0  0  0  0  0  0  0  0
  1 15  4  0
  2 12  4  0
  3  1  4  0
  3  2  4  0
  4 17  4  0
  5  8  1  0
  5 14  1  0
  5  2  1  0
  6 11  4  0
  7 18  1  0
  8 10  2  0
  9  4  1  0
 10  3  1  0
 12 19  4  0
 13  7  2  0
 13  8  1  0
 14 16  1  0
 15 19  4  0
 16  4  4  0
 16  6  4  0
 17 11  4  0
 18 14  2  0
M  END
$$$$

     RDKit          3D

 19 22  0  0  0  0  0  0  0  0999 V2000
   -1.2630   -1.0570  -16.8170 N   0  0  0  0  0  0  0  0  0  0  0  0
   -3.5650   -1.8360  -16.8380 C   0  0  0  0  0  0  0  0  0  0  0  0
   -2.5010   -1.1150  -17.4130 C   0  0  0  0  0  0  0  0  0  0  0  0
   -8.1730   -2.9240  -16.4290 C   0  0  0  0  0  0  0  0  0  0  0  0
   -4.6910   -1.5890  -17.6860 C   0  0  0  0  0  0  0  0  0  0  0  0
   -6.0990   -3.2060  -15.5520 N   0  0  0  0  0  0  0  0  0  0  0  0
   -6.3630   -0.8000  -19.8220 C   0  0  0  0  0  0  0  0  0  0  0  0
   -4.1720   -0.8940  -18.8050 C   0  0  0  0  0  0  0  0  0  0  0  0
   -9.3380   -2.6120  -17.2820 C   0  0  0  0  0  0  0  0  0  0  0  0
   -2.8730   -0.6680  -18.6420 N   0  0  0  0  0  0  0  0  0  0  0  0
   -7.1110   -3.7700  -14.7370 O   0  0  0  0  0  0  0  0  0  0  0  0
   -3.3400   -2.4950  -15.6040 C   0  0  0  0  0  0  0  0  0  0  0  0
   -5.0270   -0.5730  -19.8850 C   0  0  0  0  0  0  0  0  0  0  0  0
   -6.1280   -1.9360  -17.6470 C   0  0  0  0  0  0  0  0  0  0  0  0
   -1.1510   -1.7050  -15.7270 C   0  0  0  0  0  0  0  0  0  0  0  0
   -6.7460   -2.6880  -16.6050 C   0  0  0  0  0  0  0  0  0  0  0  0
   -8.3640   -3.6650  -15.2420 N   0  0  0  0  0  0  0  0  0  0  0  0
   -6.8770   -1.4720  -18.7020 C   0  0  0  0  0  0  0  0  0  0  0  0
   -2.0950   -2.4330  -15.0540 C   0  0  0  0  0  0  0  0  0  0  0  0
  1 15  4  0
  2 12  4  0
  3  2  4  0
  3  1  4  0
  4 17  4  0
  5 14  4  0
  5  2  4  0
  6 11  4  0
  7 18  4  0
  8 10  4  0
  8  5  4  0
  9  4  1  0
 10  3  4  0
 12 19  4  0
 13  7  4  0
 13  8  4  0
 14 16  1  0
 15 19  4  0
 16  4  4  0
 16  6  4  0
 17 11  4  0
 18 14  4  0
M  END
$$$$

     RDKit          3D

 19 22  0  0  0  0  0  0  0  0999 V2000
   -1.1810   -1.2440  -16.8420 C   0  0  0  0  0  0  0  0  0  0  0  0
   -3.5880   -1.9170  -16.9690 C   0  0  0  0  0  0  0  0  0  0  0  0
   -2.4620   -1.3700  -17.5070 C   0  0  0  0  0  0  0  0  0  0  0  0
   -8.1530   -2.8580  -16.5260 C   0  0  0  0  0  0  0  0  0  0  0  0
   -4.6820   -1.5870  -17.8730 C   0  0  0  0  0  0  0  0  0  0  0  0
   -6.1810   -3.0270  -15.5830 N   0  0  0  0  0  0  0  0  0  0  0  0
   -6.3050   -0.7610  -19.9570 C   0  0  0  0  0  0  0  0  0  0  0  0
   -4.2030   -0.9160  -18.9860 C   0  0  0  0  0  0  0  0  0  0  0  0
   -9.1940   -2.5550  -17.2590 C   0  0  0  0  0  0  0  0  0  0  0  0
   -2.7750   -0.7760  -18.7970 N   0  0  0  0  0  0  0  0  0  0  0  0
   -7.1430   -3.6230  -14.7820 N   0  0  0  0  0  0  0  0  0  0  0  0
   -3.4420   -2.6420  -15.7740 C   0  0  0  0  0  0  0  0  0  0  0  0
   -4.9350   -0.4700  -20.0480 N   0  0  0  0  0  0  0  0  0  0  0  0
   -6.0650   -1.8300  -17.8680 C   0  0  0  0  0  0  0  0  0  0  0  0
   -1.1410   -1.9450  -15.6020 C   0  0  0  0  0  0  0  0  0  0  0  0
   -6.7720   -2.5500  -16.7160 C   0  0  0  0  0  0  0  0  0  0  0  0
   -8.4310   -3.5070  -15.3920 N   0  0  0  0  0  0  0  0  0  0  0  0
   -6.8420   -1.3510  -18.8890 C   0  0  0  0  0  0  0  0  0  0  0  0
   -2.2140   -2.6180  -15.0750 C   0  0  0  0  0  0  0  0  0  0  0  0
  1 15  4  0
  2 12  4  0
  3  2  4  0
  3  1  4  0
  4 17  4  0
  5 14  4  0
  5  2  4  0
  6 11  4  0
  7 18  4  0
  8 10  4  0
  8  5  1  0
  9  4  1  0
 10  3  4  0
 12 19  4  0
 13  7  4  0
 13  8  4  0
 14 16  1  0
 15 19  4  0
 16  4  4  0
 16  6  4  0
 17 11  4  0
 18 14  4  0
M  END
$$$$

     RDKit          3D

 19 22  0  0  0  0  0  0  0  0999 V2000
   -1.0820   -0.8340  -17.0790 C   0  0  0  0  0  0  0  0  0  0  0  0
   -3.3420   -1.8130  -16.9020 C   0  0  0  0  0  0  0  0  0  0  0  0
   -2.4980   -1.1410  -17.5280 C   0  0  0  0  0  0  0  0  0  0  0  0
   -7.8990   -2.9570  -16.4110 C   0  0  0  0  0  0  0  0  0  0  0  0
   -4.6290   -1.6840  -17.6690 C   0  0  0  0  0  0  0  0  0  0  0  0
   -5.9820   -3.0510  -15.5320 N   0  0  0  0  0  0  0  0  0  0  0  0
   -6.3670   -1.0590  -19.6980 C   0  0  0  0  0  0  0  0  0  0  0  0
   -4.3090   -0.9810  -18.6810 C   0  0  0  0  0  0  0  0  0  0  0  0
   -8.9590   -2.6280  -17.2150 C   0  0  0  0  0  0  0  0  0  0  0  0
   -3.0260   -0.7010  -18.5200 N   0  0  0  0  0  0  0  0  0  0  0  0
   -6.8120   -3.7460  -14.8230 N   0  0  0  0  0  0  0  0  0  0  0  0
   -2.9780   -2.3850  -15.6740 C   0  0  0  0  0  0  0  0  0  0  0  0
   -5.1080   -0.7230  -19.5430 C   0  0  0  0  0  0  0  0  0  0  0  0
   -5.9260   -1.9550  -17.6370 C   0  0  0  0  0  0  0  0  0  0  0  0
   -0.7070   -1.3290  -15.8550 C   0  0  0  0  0  0  0  0  0  0  0  0
   -6.5450   -2.5680  -16.4950 C   0  0  0  0  0  0  0  0  0  0  0  0
   -8.0280   -3.7080  -15.3260 N   0  0  0  0  0  0  0  0  0  0  0  0
   -6.8530   -1.6310  -18.6190 C   0  0  0  0  0  0  0  0  0  0  0  0
   -1.7090   -2.1840  -15.1870 C   0  0  0  0  0  0  0  0  0  0  0  0
  1 15  1  0
  2 12  1  0
  3  1  2  0
  3  2  1  0
  4 17  4  0
  5 14  4  0
  5  2  2  0
  6 11  4  0
  7 13  4  0
  7 18  4  0
  8 10  2  0
  8  5  4  0
  9  4  1  0
 10  3  1  0
 12 19  2  0
 13  8  4  0
 14 16  1  0
 15 19  1  0
 16  4  4  0
 16  6  4  0
 17 11  4  0
 18 14  4  0
M  END
$$$$

     RDKit          3D

 19 22  0  0  0  0  0  0  0  0999 V2000
   -1.3450   -1.0930  -16.7180 C   0  0  0  0  0  0  0  0  0  0  0  0
   -3.6550   -1.8960  -16.7950 C   0  0  0  0  0  0  0  0  0  0  0  0
   -2.5490   -1.2760  -17.3820 C   0  0  0  0  0  0  0  0  0  0  0  0
   -8.2780   -2.9690  -16.5350 C   0  0  0  0  0  0  0  0  0  0  0  0
   -4.8470   -1.6960  -17.6720 C   0  0  0  0  0  0  0  0  0  0  0  0
   -6.4270   -3.1140  -15.4000 C   0  0  0  0  0  0  0  0  0  0  0  0
   -6.4910   -0.8330  -19.7490 N   0  0  0  0  0  0  0  0  0  0  0  0
   -4.2510   -0.9920  -18.8730 C   0  0  0  0  0  0  0  0  0  0  0  0
   -9.4510   -2.7170  -17.4680 C   0  0  0  0  0  0  0  0  0  0  0  0
   -2.9010   -0.8500  -18.6330 N   0  0  0  0  0  0  0  0  0  0  0  0
   -7.4260   -3.7720  -14.7930 N   0  0  0  0  0  0  0  0  0  0  0  0
   -3.5100   -2.5390  -15.5510 C   0  0  0  0  0  0  0  0  0  0  0  0
   -5.1320   -0.6140  -19.8720 C   0  0  0  0  0  0  0  0  0  0  0  0
   -6.1790   -1.9060  -17.6370 C   0  0  0  0  0  0  0  0  0  0  0  0
   -1.2010   -1.7760  -15.5200 C   0  0  0  0  0  0  0  0  0  0  0  0
   -6.9460   -2.6250  -16.5700 C   0  0  0  0  0  0  0  0  0  0  0  0
   -8.5420   -3.7480  -15.4410 N   0  0  0  0  0  0  0  0  0  0  0  0
   -6.9270   -1.3890  -18.6560 N   0  0  0  0  0  0  0  0  0  0  0  0
   -2.2650   -2.4590  -14.9250 C   0  0  0  0  0  0  0  0  0  0  0  0
  1 15  1  0
  2 12  1  0
  3  2  1  0
  3  1  2  0
  4 17  4  0
  5 14  4  0
  5  2  2  0
  6 11  4  0
  7 18  4  0
  8 10  2  0
  8  5  4  0
  9  4  1  0
 10  3  1  0
 12 19  2  0
 13  7  4  0
 13  8  4  0
 14 16  1  0
 15 19  1  0
 16  4  4  0
 16  6  4  0
 17 11  4  0
 18 14  4  0
M  END
$$$$

     RDKit          3D

 19 22  0  0  0  0  0  0  0  0999 V2000
   -1.2360   -1.3060  -17.0320 C   0  0  0  0  0  0  0  0  0  0  0  0
   -3.5360   -1.7750  -16.8960 C   0  0  0  0  0  0  0  0  0  0  0  0
   -2.4750   -1.4140  -17.5420 C   0  0  0  0  0  0  0  0  0  0  0  0
   -8.0400   -2.9200  -16.4190 C   0  0  0  0  0  0  0  0  0  0  0  0
   -4.7070   -1.6160  -17.7940 C   0  0  0  0  0  0  0  0  0  0  0  0
   -5.9670   -3.0550  -15.6250 N   0  0  0  0  0  0  0  0  0  0  0  0
   -6.5420   -0.8620  -19.7840 C   0  0  0  0  0  0  0  0  0  0  0  0
   -4.2470   -0.9710  -18.9230 C   0  0  0  0  0  0  0  0  0  0  0  0
   -9.2270   -2.6530  -17.2290 C   0  0  0  0  0  0  0  0  0  0  0  0
   -2.8620   -0.8880  -18.8240 N   0  0  0  0  0  0  0  0  0  0  0  0
   -6.8530   -3.7260  -14.7450 N   0  0  0  0  0  0  0  0  0  0  0  0
   -3.3280   -2.3560  -15.5890 C   0  0  0  0  0  0  0  0  0  0  0  0
   -5.1550   -0.6430  -19.9500 C   0  0  0  0  0  0  0  0  0  0  0  0
   -6.0960   -1.8490  -17.6800 C   0  0  0  0  0  0  0  0  0  0  0  0
   -0.9590   -1.8430  -15.7670 C   0  0  0  0  0  0  0  0  0  0  0  0
   -6.7080   -2.5740  -16.6500 C   0  0  0  0  0  0  0  0  0  0  0  0
   -8.1870   -3.6340  -15.2400 N   0  0  0  0  0  0  0  0  0  0  0  0
   -6.9430   -1.4400  -18.6520 N   0  0  0  0  0  0  0  0  0  0  0  0
   -2.0570   -2.3910  -15.0720 C   0  0  0  0  0  0  0  0  0  0  0  0
  1 15  1  0
  2 12  1  0
  3  1  2  0
  3  2  1  0
  4 17  4  0
  5 14  4  0
  5  2  2  0
  6 11  4  0
  7 18  4  0
  8 10  2  0
  8  5  4  0
  9  4  1  0
 10  3  1  0
 12 19  2  0
 13  7  4  0
 13  8  4  0
 14 16  1  0
 15 19  1  0
 16  4  4  0
 16  6  4  0
 17 11  4  0
 18 14  4  0
M  END
$$$$

     RDKit          3D

 19 22  0  0  0  0  0  0  0  0999 V2000
   -1.2050   -0.9980  -17.0890 C   0  0  0  0  0  0  0  0  0  0  0  0
   -3.6220   -1.6890  -17.1170 C   0  0  0  0  0  0  0  0  0  0  0  0
   -2.5100   -1.1160  -17.7530 C   0  0  0  0  0  0  0  0  0  0  0  0
   -8.0310   -2.8980  -16.5810 C   0  0  0  0  0  0  0  0  0  0  0  0
   -4.7870   -1.4870  -17.9980 C   0  0  0  0  0  0  0  0  0  0  0  0
   -6.0170   -2.9040  -15.8600 N   0  0  0  0  0  0  0  0  0  0  0  0
   -6.4940   -0.8350  -20.1180 C   0  0  0  0  0  0  0  0  0  0  0  0
   -4.2690   -0.9020  -19.1070 C   0  0  0  0  0  0  0  0  0  0  0  0
   -9.3750   -2.9300  -17.3340 C   0  0  0  0  0  0  0  0  0  0  0  0
   -2.9740   -0.7990  -18.9940 N   0  0  0  0  0  0  0  0  0  0  0  0
   -6.7730   -3.5460  -14.9620 N   0  0  0  0  0  0  0  0  0  0  0  0
   -3.4620   -2.3390  -15.8450 C   0  0  0  0  0  0  0  0  0  0  0  0
   -5.1400   -0.6280  -20.1210 C   0  0  0  0  0  0  0  0  0  0  0  0
   -6.1750   -1.8110  -17.9830 C   0  0  0  0  0  0  0  0  0  0  0  0
   -1.1440   -1.7610  -15.8920 C   0  0  0  0  0  0  0  0  0  0  0  0
   -6.7450   -2.4580  -16.8790 C   0  0  0  0  0  0  0  0  0  0  0  0
   -7.9470   -3.4910  -15.4490 N   0  0  0  0  0  0  0  0  0  0  0  0
   -7.0020   -1.4070  -18.9880 C   0  0  0  0  0  0  0  0  0  0  0  0
   -2.1870   -2.3160  -15.3370 C   0  0  0  0  0  0  0  0  0  0  0  0
  1 15  1  0
  2 12  1  0
  3  2  1  0
  3  1  2  0
  4 17  4  0
  5 14  4  0
  5  2  2  0
  6 11  4  0
  7 18  4  0
  8 10  2  0
  8  5  4  0
  9  4  1  0
 10  3  1  0
 12 19  2  0
 13  7  4  0
 13  8  4  0
 14 16  1  0
 15 19  1  0
 16  4  4  0
 16  6  4  0
 17 11  4  0
 18 14  4  0
M  END
$$$$

     RDKit          3D

 19 22  0  0  0  0  0  0  0  0999 V2000
   -1.4300   -1.1930  -16.6920 C   0  0  0  0  0  0  0  0  0  0  0  0
   -3.7800   -1.9840  -16.8530 C   0  0  0  0  0  0  0  0  0  0  0  0
   -2.6570   -1.3100  -17.3420 C   0  0  0  0  0  0  0  0  0  0  0  0
   -8.1340   -2.9430  -16.2500 C   0  0  0  0  0  0  0  0  0  0  0  0
   -4.8270   -1.6540  -17.7210 C   0  0  0  0  0  0  0  0  0  0  0  0
   -6.1440   -3.2480  -15.4490 N   0  0  0  0  0  0  0  0  0  0  0  0
   -6.3870   -0.8150  -19.7640 C   0  0  0  0  0  0  0  0  0  0  0  0
   -4.3140   -0.9850  -18.8690 C   0  0  0  0  0  0  0  0  0  0  0  0
   -9.1450   -2.6650  -17.0960 C   0  0  0  0  0  0  0  0  0  0  0  0
   -2.9420   -0.8200  -18.6180 N   0  0  0  0  0  0  0  0  0  0  0  0
   -7.0450   -3.8300  -14.6360 N   0  0  0  0  0  0  0  0  0  0  0  0
   -3.5740   -2.6850  -15.6290 C   0  0  0  0  0  0  0  0  0  0  0  0
   -5.0920   -0.6100  -19.8260 N   0  0  0  0  0  0  0  0  0  0  0  0
   -6.1850   -1.9490  -17.6530 C   0  0  0  0  0  0  0  0  0  0  0  0
   -1.3160   -1.8660  -15.5020 C   0  0  0  0  0  0  0  0  0  0  0  0
   -6.8280   -2.6520  -16.4420 C   0  0  0  0  0  0  0  0  0  0  0  0
   -8.2670   -3.7060  -15.0870 N   0  0  0  0  0  0  0  0  0  0  0  0
   -6.9370   -1.4780  -18.6660 C   0  0  0  0  0  0  0  0  0  0  0  0
   -2.3730   -2.6410  -14.9830 C   0  0  0  0  0  0  0  0  0  0  0  0
  1 15  4  0
  2 12  4  0
  3  2  4  0
  3  1  4  0
  4 17  4  0
  5  8  1  0
  5 14  1  0
  5  2  1  0
  6 11  4  0
  7 18  1  0
  8 10  2  0
  9  4  1  0
 10  3  1  0
 12 19  4  0
 13  7  2  0
 13  8  1  0
 14 16  1  0
 15 19  4  0
 16  4  4  0
 16  6  4  0
 17 11  4  0
 18 14  2  0
M  END
$$$$

     RDKit          3D

 19 22  0  0  0  0  0  0  0  0999 V2000
   -1.4310   -1.2260  -16.9210 C   0  0  0  0  0  0  0  0  0  0  0  0
   -3.7410   -2.0240  -16.8800 C   0  0  0  0  0  0  0  0  0  0  0  0
   -2.6840   -1.3610  -17.5780 C   0  0  0  0  0  0  0  0  0  0  0  0
   -8.3980   -3.2050  -16.5610 C   0  0  0  0  0  0  0  0  0  0  0  0
   -5.0140   -1.7440  -17.8070 C   0  0  0  0  0  0  0  0  0  0  0  0
   -6.3330   -3.2000  -15.4550 N   0  0  0  0  0  0  0  0  0  0  0  0
   -6.6380   -0.8230  -19.7160 C   0  0  0  0  0  0  0  0  0  0  0  0
   -4.4650   -1.0820  -18.8570 C   0  0  0  0  0  0  0  0  0  0  0  0
   -9.6650   -3.0510  -17.3470 C   0  0  0  0  0  0  0  0  0  0  0  0
   -3.0780   -0.9750  -18.7590 N   0  0  0  0  0  0  0  0  0  0  0  0
   -7.2920   -3.9280  -14.7130 N   0  0  0  0  0  0  0  0  0  0  0  0
   -3.5350   -2.6200  -15.5930 C   0  0  0  0  0  0  0  0  0  0  0  0
   -5.2300   -0.5830  -19.7750 C   0  0  0  0  0  0  0  0  0  0  0  0
   -6.4640   -2.0480  -17.7680 C   0  0  0  0  0  0  0  0  0  0  0  0
   -1.2720   -1.8430  -15.6210 C   0  0  0  0  0  0  0  0  0  0  0  0
   -7.0700   -2.7960  -16.6400 C   0  0  0  0  0  0  0  0  0  0  0  0
   -8.4920   -3.8660  -15.3110 N   0  0  0  0  0  0  0  0  0  0  0  0
   -7.1770   -1.6250  -18.7770 N   0  0  0  0  0  0  0  0  0  0  0  0
   -2.3030   -2.4480  -15.0230 C   0  0  0  0  0  0  0  0  0  0  0  0
  1 15  4  0
  2 12  4  0
  3  1  4  0
  3  2  4  0
  4 17  4  0
  5 14  4  0
  5  2  4  0
  6 11  4  0
  7 18  4  0
  8 10  4  0
  8  5  4  0
  9  4  1  0
 10  3  4  0
 12 19  4  0
 13  7  4  0
 13  8  4  0
 14 16  1  0
 15 19  4  0
 16  4  4  0
 16  6  4  0
 17 11  4  0
 18 14  4  0
M  END
$$$$

     RDKit          3D

 19 22  0  0  0  0  0  0  0  0999 V2000
   -1.2610   -1.1310  -17.0940 C   0  0  0  0  0  0  0  0  0  0  0  0
   -3.6530   -1.8060  -16.9520 C   0  0  0  0  0  0  0  0  0  0  0  0
   -2.5650   -1.2190  -17.6260 C   0  0  0  0  0  0  0  0  0  0  0  0
   -8.2360   -2.9680  -16.4880 C   0  0  0  0  0  0  0  0  0  0  0  0
   -4.8750   -1.6170  -17.7630 C   0  0  0  0  0  0  0  0  0  0  0  0
   -6.2090   -3.1750  -15.7030 N   0  0  0  0  0  0  0  0  0  0  0  0
   -6.6400   -0.7270  -19.9200 C   0  0  0  0  0  0  0  0  0  0  0  0
   -4.4860   -0.8360  -19.0010 C   0  0  0  0  0  0  0  0  0  0  0  0
   -9.4410   -2.8440  -17.2990 C   0  0  0  0  0  0  0  0  0  0  0  0
   -3.0650   -0.6570  -18.7630 N   0  0  0  0  0  0  0  0  0  0  0  0
   -7.1290   -3.8400  -14.8890 C   0  0  0  0  0  0  0  0  0  0  0  0
   -3.3910   -2.4660  -15.7840 C   0  0  0  0  0  0  0  0  0  0  0  0
   -5.3110   -0.4850  -20.0190 C   0  0  0  0  0  0  0  0  0  0  0  0
   -6.2990   -1.9000  -17.7480 C   0  0  0  0  0  0  0  0  0  0  0  0
   -1.0640   -1.9270  -15.9060 C   0  0  0  0  0  0  0  0  0  0  0  0
   -6.8830   -2.6500  -16.7080 C   0  0  0  0  0  0  0  0  0  0  0  0
   -8.4070   -3.7080  -15.3460 N   0  0  0  0  0  0  0  0  0  0  0  0
   -7.1330   -1.4140  -18.7850 C   0  0  0  0  0  0  0  0  0  0  0  0
   -2.1350   -2.6040  -15.2460 C   0  0  0  0  0  0  0  0  0  0  0  0
  1 15  1  0
  2 12  1  0
  3  1  2  0
  3  2  1  0
  4 17  4  0
  5 14  4  0
  5  2  2  0
  6 11  4  0
  7 18  4  0
  8 10  2  0
  8  5  4  0
  9  4  1  0
 10  3  1  0
 12 19  2  0
 13  7  4  0
 13  8  4  0
 14 16  1  0
 15 19  1  0
 16  4  4  0
 16  6  4  0
 17 11  4  0
 18 14  4  0
M  END
$$$$

     RDKit          3D

 19 22  0  0  0  0  0  0  0  0999 V2000
   -1.1210   -1.5640  -17.0150 C   0  0  0  0  0  0  0  0  0  0  0  0
   -3.5530   -1.8970  -17.0060 C   0  0  0  0  0  0  0  0  0  0  0  0
   -2.4490   -1.3460  -17.6140 C   0  0  0  0  0  0  0  0  0  0  0  0
   -8.2890   -2.7460  -16.4470 C   0  0  0  0  0  0  0  0  0  0  0  0
   -4.7750   -1.6310  -17.7860 C   0  0  0  0  0  0  0  0  0  0  0  0
   -6.2450   -2.9800  -15.5630 N   0  0  0  0  0  0  0  0  0  0  0  0
   -6.4910   -0.7980  -19.9030 C   0  0  0  0  0  0  0  0  0  0  0  0
   -4.2320   -0.9090  -18.9250 C   0  0  0  0  0  0  0  0  0  0  0  0
   -9.4540   -2.5490  -17.3260 C   0  0  0  0  0  0  0  0  0  0  0  0
   -2.8430   -0.7810  -18.8570 N   0  0  0  0  0  0  0  0  0  0  0  0
   -7.1460   -3.5020  -14.7200 N   0  0  0  0  0  0  0  0  0  0  0  0
   -3.4670   -2.5380  -15.7480 C   0  0  0  0  0  0  0  0  0  0  0  0
   -5.1180   -0.4730  -19.9050 N   0  0  0  0  0  0  0  0  0  0  0  0
   -6.3050   -1.8730  -17.7710 C   0  0  0  0  0  0  0  0  0  0  0  0
   -1.0760   -2.1360  -15.7750 C   0  0  0  0  0  0  0  0  0  0  0  0
   -6.9740   -2.4890  -16.6790 C   0  0  0  0  0  0  0  0  0  0  0  0
   -8.4320   -3.3940  -15.2350 N   0  0  0  0  0  0  0  0  0  0  0  0
   -7.0400   -1.4340  -18.8110 N   0  0  0  0  0  0  0  0  0  0  0  0
   -2.1690   -2.6330  -15.1610 C   0  0  0  0  0  0  0  0  0  0  0  0
  1 15  4  0
  2 12  4  0
  3  1  4  0
  3  2  4  0
  4 17  4  0
  5  8  1  0
  5 14  1  0
  5  2  1  0
  6 11  4  0
  7 18  1  0
  8 10  2  0
  9  4  1  0
 10  3  1  0
 12 19  4  0
 13  7  2  0
 13  8  1  0
 14 16  1  0
 15 19  4  0
 16  4  4  0
 16  6  4  0
 17 11  4  0
 18 14  2  0
M  END
$$$$

     RDKit          3D

 19 22  0  0  0  0  0  0  0  0999 V2000
   -1.1690   -1.1210  -16.8090 C   0  0  0  0  0  0  0  0  0  0  0  0
   -3.4850   -1.7370  -16.7800 C   0  0  0  0  0  0  0  0  0  0  0  0
   -2.4110   -1.1630  -17.4270 C   0  0  0  0  0  0  0  0  0  0  0  0
   -8.1340   -2.7680  -16.3200 C   0  0  0  0  0  0  0  0  0  0  0  0
   -4.6650   -1.5860  -17.7090 C   0  0  0  0  0  0  0  0  0  0  0  0
   -5.9800   -3.2190  -15.5520 C   0  0  0  0  0  0  0  0  0  0  0  0
   -6.2470   -0.9830  -19.7850 C   0  0  0  0  0  0  0  0  0  0  0  0
   -4.1420   -0.9770  -18.7780 C   0  0  0  0  0  0  0  0  0  0  0  0
   -9.2550   -2.1790  -17.0360 C   0  0  0  0  0  0  0  0  0  0  0  0
   -2.8210   -0.7220  -18.5950 N   0  0  0  0  0  0  0  0  0  0  0  0
   -6.9240   -3.8200  -14.7980 N   0  0  0  0  0  0  0  0  0  0  0  0
   -3.3130   -2.3560  -15.4960 C   0  0  0  0  0  0  0  0  0  0  0  0
   -4.9270   -0.6400  -19.8560 C   0  0  0  0  0  0  0  0  0  0  0  0
   -5.9690   -1.8720  -17.6280 C   0  0  0  0  0  0  0  0  0  0  0  0
   -1.0270   -1.7820  -15.5840 C   0  0  0  0  0  0  0  0  0  0  0  0
   -6.6090   -2.5910  -16.5330 C   0  0  0  0  0  0  0  0  0  0  0  0
   -8.2150   -3.6690  -15.2530 N   0  0  0  0  0  0  0  0  0  0  0  0
   -6.8010   -1.6230  -18.7330 C   0  0  0  0  0  0  0  0  0  0  0  0
   -2.1420   -2.3440  -14.9640 C   0  0  0  0  0  0  0  0  0  0  0  0
  1 15  1  0
  2 12  1  0
  3  1  2  0
  3  2  1  0
  4 17  4  0
  5 14  4  0
  5  2  2  0
  6 11  4  0
  7 18  4  0
  8 10  2  0
  8  5  4  0
  9  4  1  0
 10  3  1  0
 12 19  2  0
 13  7  4  0
 13  8  4  0
 14 16  1  0
 15 19  1  0
 16  4  4  0
 16  6  4  0
 17 11  4  0
 18 14  4  0
M  END
$$$$

     RDKit          3D

 19 22  0  0  0  0  0  0  0  0999 V2000
   -1.0390   -1.4740  -17.0750 C   0  0  0  0  0  0  0  0  0  0  0  0
   -3.5490   -1.8270  -16.8770 C   0  0  0  0  0  0  0  0  0  0  0  0
   -2.3960   -1.2930  -17.6060 C   0  0  0  0  0  0  0  0  0  0  0  0
   -8.3050   -2.9040  -16.5270 C   0  0  0  0  0  0  0  0  0  0  0  0
   -4.7660   -1.6490  -17.7490 C   0  0  0  0  0  0  0  0  0  0  0  0
   -6.2460   -3.2840  -15.5320 N   0  0  0  0  0  0  0  0  0  0  0  0
   -6.4500   -0.7540  -20.0020 C   0  0  0  0  0  0  0  0  0  0  0  0
   -4.1960   -0.9670  -18.9950 C   0  0  0  0  0  0  0  0  0  0  0  0
   -9.4310   -2.5760  -17.3800 C   0  0  0  0  0  0  0  0  0  0  0  0
   -2.8540   -0.8700  -18.8920 N   0  0  0  0  0  0  0  0  0  0  0  0
   -7.2610   -3.9590  -14.8290 N   0  0  0  0  0  0  0  0  0  0  0  0
   -3.4020   -2.4030  -15.5470 C   0  0  0  0  0  0  0  0  0  0  0  0
   -5.0110   -0.5160  -20.0570 C   0  0  0  0  0  0  0  0  0  0  0  0
   -6.2040   -1.9370  -17.7360 C   0  0  0  0  0  0  0  0  0  0  0  0
   -0.8550   -1.9780  -15.7180 C   0  0  0  0  0  0  0  0  0  0  0  0
   -6.9020   -2.6800  -16.6610 C   0  0  0  0  0  0  0  0  0  0  0  0
   -8.5550   -3.6940  -15.3960 N   0  0  0  0  0  0  0  0  0  0  0  0
   -6.9790   -1.4080  -18.8670 C   0  0  0  0  0  0  0  0  0  0  0  0
   -2.0400   -2.3970  -14.9530 C   0  0  0  0  0  0  0  0  0  0  0  0
  1 15  1  0
  2 12  1  0
  3  1  2  0
  3  2  1  0
  4 17  4  0
  5 14  4  0
  5  2  2  0
  6 11  4  0
  7 18  4  0
  8 10  2  0
  8  5  4  0
  9  4  1  0
 10  3  1  0
 12 19  2  0
 13  7  4  0
 13  8  4  0
 14 16  1  0
 15 19  1  0
 16  4  4  0
 16  6  4  0
 17 11  4  0
 18 14  4  0
M  END
$$$$

     RDKit          3D

 19 22  0  0  0  0  0  0  0  0999 V2000
   -1.1950   -1.1650  -16.9120 C   0  0  0  0  0  0  0  0  0  0  0  0
   -3.5670   -1.8110  -16.8860 C   0  0  0  0  0  0  0  0  0  0  0  0
   -2.4820   -1.1900  -17.5000 C   0  0  0  0  0  0  0  0  0  0  0  0
   -8.0960   -2.9670  -16.4570 C   0  0  0  0  0  0  0  0  0  0  0  0
   -4.7350   -1.6080  -17.7560 C   0  0  0  0  0  0  0  0  0  0  0  0
   -6.1450   -3.0660  -15.5040 N   0  0  0  0  0  0  0  0  0  0  0  0
   -6.5390   -1.0030  -19.9190 C   0  0  0  0  0  0  0  0  0  0  0  0
   -4.3970   -0.9430  -18.9050 C   0  0  0  0  0  0  0  0  0  0  0  0
   -9.2320   -2.7210  -17.3300 C   0  0  0  0  0  0  0  0  0  0  0  0
   -2.8090   -0.4610  -18.9510 S   0  0  0  0  0  0  0  0  0  0  0  0
   -6.8610   -3.7520  -14.7570 N   0  0  0  0  0  0  0  0  0  0  0  0
   -3.3790   -2.2920  -15.6350 C   0  0  0  0  0  0  0  0  0  0  0  0
   -5.2410   -0.6360  -19.9260 N   0  0  0  0  0  0  0  0  0  0  0  0
   -6.0780   -1.9590  -17.6940 C   0  0  0  0  0  0  0  0  0  0  0  0
   -1.0910   -1.7580  -15.6900 C   0  0  0  0  0  0  0  0  0  0  0  0
   -6.7880   -2.6070  -16.6100 C   0  0  0  0  0  0  0  0  0  0  0  0
   -8.1560   -3.6570  -15.2620 N   0  0  0  0  0  0  0  0  0  0  0  0
   -6.9900   -1.5720  -18.7090 C   0  0  0  0  0  0  0  0  0  0  0  0
   -2.1320   -2.3420  -15.0560 C   0  0  0  0  0  0  0  0  0  0  0  0
  1 15  4  0
  2 12  4  0
  3  1  4  0
  3  2  4  0
  4 17  4  0
  5 14  4  0
  5  2  4  0
  6 11  4  0
  7 18  4  0
  8  5  4  0
  9  4  1  0
 10  8  4  0
 10  3  4  0
 12 19  4  0
 13  7  4  0
 13  8  4  0
 14 16  1  0
 15 19  4  0
 16  4  4  0
 16  6  4  0
 17 11  4  0
 18 14  4  0
M  END
$$$$

     RDKit          3D

 19 22  0  0  0  0  0  0  0  0999 V2000
   -1.4230   -1.3160  -17.2920 C   0  0  0  0  0  0  0  0  0  0  0  0
   -3.7260   -1.8390  -17.1440 C   0  0  0  0  0  0  0  0  0  0  0  0
   -2.6370   -1.3340  -17.8080 C   0  0  0  0  0  0  0  0  0  0  0  0
   -8.1180   -2.8880  -16.4970 C   0  0  0  0  0  0  0  0  0  0  0  0
   -4.8520   -1.6800  -17.9870 C   0  0  0  0  0  0  0  0  0  0  0  0
   -6.0570   -2.8920  -15.6140 N   0  0  0  0  0  0  0  0  0  0  0  0
   -6.6450   -0.8420  -20.0590 C   0  0  0  0  0  0  0  0  0  0  0  0
   -4.4460   -1.0420  -19.1350 C   0  0  0  0  0  0  0  0  0  0  0  0
   -9.0970   -2.6670  -17.1590 O   0  0  0  0  0  0  0  0  0  0  0  0
   -3.0940   -0.9780  -18.9650 N   0  0  0  0  0  0  0  0  0  0  0  0
   -6.8470   -3.5720  -14.7350 C   0  0  0  0  0  0  0  0  0  0  0  0
   -3.5040   -2.3090  -15.7940 C   0  0  0  0  0  0  0  0  0  0  0  0
   -5.2100   -0.6660  -20.1170 C   0  0  0  0  0  0  0  0  0  0  0  0
   -6.2460   -1.8430  -17.9120 C   0  0  0  0  0  0  0  0  0  0  0  0
   -1.2220   -1.6930  -16.0030 C   0  0  0  0  0  0  0  0  0  0  0  0
   -6.7770   -2.5320  -16.7230 C   0  0  0  0  0  0  0  0  0  0  0  0
   -8.1150   -3.5350  -15.3230 N   0  0  0  0  0  0  0  0  0  0  0  0
   -7.0760   -1.4480  -18.8680 C   0  0  0  0  0  0  0  0  0  0  0  0
   -2.2040   -2.2000  -15.2280 C   0  0  0  0  0  0  0  0  0  0  0  0
  1 15  1  0
  2 12  1  0
  3  1  2  0
  3  2  1  0
  4 17  1  0
  5 14  4  0
  5  2  2  0
  6 11  2  0
  7 18  4  0
  8 10  2  0
  8  5  4  0
  9  4  2  0
 10  3  1  0
 12 19  2  0
 13  7  4  0
 13  8  4  0
 15 19  1  0
 16 14  1  0
 16  4  1  0
 16  6  1  0
 17 11  1  0
 18 14  4  0
M  END
$$$$

     RDKit          3D

 19 22  0  0  0  0  0  0  0  0999 V2000
   -1.3770   -1.1080  -16.8920 C   0  0  0  0  0  0  0  0  0  0  0  0
   -3.6720   -1.9290  -16.9690 C   0  0  0  0  0  0  0  0  0  0  0  0
   -2.5460   -1.2520  -17.5960 C   0  0  0  0  0  0  0  0  0  0  0  0
   -8.2890   -2.9210  -16.6050 C   0  0  0  0  0  0  0  0  0  0  0  0
   -4.8370   -1.7400  -17.7990 C   0  0  0  0  0  0  0  0  0  0  0  0
   -6.2910   -3.0970  -15.4970 N   0  0  0  0  0  0  0  0  0  0  0  0
   -6.3620   -0.8890  -19.8920 C   0  0  0  0  0  0  0  0  0  0  0  0
   -4.2310   -1.1580  -18.9510 C   0  0  0  0  0  0  0  0  0  0  0  0
   -9.3200   -2.6370  -17.5590 C   0  0  0  0  0  0  0  0  0  0  0  0
   -2.9140   -0.8660  -18.7940 N   0  0  0  0  0  0  0  0  0  0  0  0
   -7.4060   -3.5810  -14.7420 N   0  0  0  0  0  0  0  0  0  0  0  0
   -3.4950   -2.5310  -15.7480 C   0  0  0  0  0  0  0  0  0  0  0  0
   -5.0450   -0.6880  -19.8650 N   0  0  0  0  0  0  0  0  0  0  0  0
   -6.2140   -2.0200  -17.7980 C   0  0  0  0  0  0  0  0  0  0  0  0
   -1.2670   -1.7060  -15.6700 C   0  0  0  0  0  0  0  0  0  0  0  0
   -6.9110   -2.6470  -16.6780 C   0  0  0  0  0  0  0  0  0  0  0  0
   -8.5750   -3.4920  -15.4400 N   0  0  0  0  0  0  0  0  0  0  0  0
   -6.9460   -1.5420  -18.8520 N   0  0  0  0  0  0  0  0  0  0  0  0
   -2.3010   -2.4530  -15.1090 C   0  0  0  0  0  0  0  0  0  0  0  0
  1 15  4  0
  2 12  4  0
  3  2  4  0
  3  1  4  0
  4 17  4  0
  5  8  1  0
  5 14  1  0
  5  2  1  0
  6 11  4  0
  7 13  2  0
  7 18  1  0
  8 10  2  0
  9  4  1  0
 10  3  1  0
 12 19  4  0
 13  8  1  0
 14 16  1  0
 15 19  4  0
 16  4  4  0
 16  6  4  0
 17 11  4  0
 18 14  2  0
M  END
$$$$

     RDKit          3D

 19 22  0  0  0  0  0  0  0  0999 V2000
   -1.2750   -1.5600  -17.2950 C   0  0  0  0  0  0  0  0  0  0  0  0
   -3.7520   -1.9580  -16.9090 C   0  0  0  0  0  0  0  0  0  0  0  0
   -2.6540   -1.3800  -17.7020 C   0  0  0  0  0  0  0  0  0  0  0  0
   -8.4550   -3.3530  -16.5550 C   0  0  0  0  0  0  0  0  0  0  0  0
   -5.0090   -1.7260  -17.7930 C   0  0  0  0  0  0  0  0  0  0  0  0
   -6.5760   -3.2090  -15.4440 N   0  0  0  0  0  0  0  0  0  0  0  0
   -6.8100   -0.8470  -19.7090 C   0  0  0  0  0  0  0  0  0  0  0  0
   -4.5570   -0.9490  -18.9210 C   0  0  0  0  0  0  0  0  0  0  0  0
   -9.6580   -3.1190  -17.5110 C   0  0  0  0  0  0  0  0  0  0  0  0
   -3.0740   -0.7300  -18.8670 N   0  0  0  0  0  0  0  0  0  0  0  0
   -7.4360   -4.0070  -14.7590 N   0  0  0  0  0  0  0  0  0  0  0  0
   -3.5550   -2.5560  -15.6310 C   0  0  0  0  0  0  0  0  0  0  0  0
   -5.4900   -0.5170  -19.8980 N   0  0  0  0  0  0  0  0  0  0  0  0
   -6.4320   -1.9700  -17.6950 C   0  0  0  0  0  0  0  0  0  0  0  0
   -1.0710   -2.0480  -15.9460 C   0  0  0  0  0  0  0  0  0  0  0  0
   -7.1010   -2.7860  -16.5580 C   0  0  0  0  0  0  0  0  0  0  0  0
   -8.5560   -4.1360  -15.4900 N   0  0  0  0  0  0  0  0  0  0  0  0
   -7.2380   -1.5220  -18.6270 N   0  0  0  0  0  0  0  0  0  0  0  0
   -2.2490   -2.5010  -15.1820 C   0  0  0  0  0  0  0  0  0  0  0  0
  1 15  4  0
  2 12  4  0
  3  1  4  0
  3  2  4  0
  4 17  4  0
  5  8  1  0
  5 14  1  0
  5  2  1  0
  6 11  4  0
  7 18  1  0
  8 10  2  0
  9  4  1  0
 10  3  1  0
 12 19  4  0
 13  7  2  0
 13  8  1  0
 14 16  1  0
 15 19  4  0
 16  4  4  0
 16  6  4  0
 17 11  4  0
 18 14  2  0
M  END
$$$$

     RDKit          3D

 19 22  0  0  0  0  0  0  0  0999 V2000
   -1.2330   -0.9160  -17.0130 C   0  0  0  0  0  0  0  0  0  0  0  0
   -3.4920   -1.8560  -17.0420 C   0  0  0  0  0  0  0  0  0  0  0  0
   -2.5050   -1.1200  -17.6370 C   0  0  0  0  0  0  0  0  0  0  0  0
   -8.2060   -2.8750  -16.5430 C   0  0  0  0  0  0  0  0  0  0  0  0
   -4.8170   -1.6410  -17.8600 C   0  0  0  0  0  0  0  0  0  0  0  0
   -6.0610   -3.0810  -15.6860 N   0  0  0  0  0  0  0  0  0  0  0  0
   -6.4090   -0.9530  -19.9280 C   0  0  0  0  0  0  0  0  0  0  0  0
   -4.3210   -1.0120  -18.9570 C   0  0  0  0  0  0  0  0  0  0  0  0
   -9.3740   -2.7040  -17.4650 C   0  0  0  0  0  0  0  0  0  0  0  0
   -3.0440   -0.6540  -18.8110 N   0  0  0  0  0  0  0  0  0  0  0  0
   -6.9670   -3.7010  -14.8700 C   0  0  0  0  0  0  0  0  0  0  0  0
   -3.1760   -2.5210  -15.9030 C   0  0  0  0  0  0  0  0  0  0  0  0
   -5.1100   -0.6810  -19.9650 N   0  0  0  0  0  0  0  0  0  0  0  0
   -6.1920   -1.9210  -17.8310 C   0  0  0  0  0  0  0  0  0  0  0  0
   -0.9070   -1.6240  -15.9220 C   0  0  0  0  0  0  0  0  0  0  0  0
   -6.8350   -2.6030  -16.7390 N   0  0  0  0  0  0  0  0  0  0  0  0
   -8.2890   -3.5060  -15.3200 N   0  0  0  0  0  0  0  0  0  0  0  0
   -6.9630   -1.4730  -18.8350 C   0  0  0  0  0  0  0  0  0  0  0  0
   -1.8530   -2.4740  -15.3590 C   0  0  0  0  0  0  0  0  0  0  0  0
  1 15  4  0
  2 12  4  0
  3  2  4  0
  3  1  4  0
  4 17  4  0
  5  8  1  0
  5 14  1  0
  5  2  1  0
  6 11  4  0
  7 18  1  0
  8 10  2  0
  9  4  1  0
 10  3  1  0
 12 19  4  0
 13  7  2  0
 13  8  1  0
 14 16  1  0
 15 19  4  0
 16  4  4  0
 16  6  4  0
 17 11  4  0
 18 14  2  0
M  END
$$$$

     RDKit          3D

 19 22  0  0  0  0  0  0  0  0999 V2000
   -1.3120   -1.0460  -16.7560 C   0  0  0  0  0  0  0  0  0  0  0  0
   -3.6890   -1.8330  -16.9410 C   0  0  0  0  0  0  0  0  0  0  0  0
   -2.5400   -1.1710  -17.3620 C   0  0  0  0  0  0  0  0  0  0  0  0
   -8.1450   -2.8540  -16.5610 C   0  0  0  0  0  0  0  0  0  0  0  0
   -4.7420   -1.5690  -17.8120 C   0  0  0  0  0  0  0  0  0  0  0  0
   -6.1490   -3.1590  -15.6980 N   0  0  0  0  0  0  0  0  0  0  0  0
   -6.2930   -0.8670  -20.0160 C   0  0  0  0  0  0  0  0  0  0  0  0
   -4.1960   -0.8610  -18.8870 C   0  0  0  0  0  0  0  0  0  0  0  0
   -9.3270   -2.6280  -17.3860 C   0  0  0  0  0  0  0  0  0  0  0  0
   -2.9930   -0.5570  -18.6330 N   0  0  0  0  0  0  0  0  0  0  0  0
   -6.9490   -3.7430  -14.8400 N   0  0  0  0  0  0  0  0  0  0  0  0
   -3.4690   -2.6160  -15.7900 C   0  0  0  0  0  0  0  0  0  0  0  0
   -4.9720   -0.4910  -19.9290 N   0  0  0  0  0  0  0  0  0  0  0  0
   -6.1370   -1.8210  -17.8060 C   0  0  0  0  0  0  0  0  0  0  0  0
   -1.2390   -1.7960  -15.6010 C   0  0  0  0  0  0  0  0  0  0  0  0
   -6.7330   -2.5310  -16.7510 C   0  0  0  0  0  0  0  0  0  0  0  0
   -8.2110   -3.5660  -15.4080 N   0  0  0  0  0  0  0  0  0  0  0  0
   -6.8920   -1.5320  -18.9340 C   0  0  0  0  0  0  0  0  0  0  0  0
   -2.2120   -2.5900  -15.1670 C   0  0  0  0  0  0  0  0  0  0  0  0
  1 15  4  0
  2 12  4  0
  3  2  4  0
  3  1  4  0
  4 17  4  0
  5  8  1  0
  5 14  1  0
  5  2  1  0
  6 11  4  0
  7 13  2  0
  7 18  1  0
  8 10  2  0
  9  4  1  0
 10  3  1  0
 12 19  4  0
 13  8  1  0
 14 16  1  0
 15 19  4  0
 16  4  4  0
 16  6  4  0
 17 11  4  0
 18 14  2  0
M  END
$$$$

     RDKit          3D

 19 22  0  0  0  0  0  0  0  0999 V2000
   -1.2060   -0.8880  -16.8750 C   0  0  0  0  0  0  0  0  0  0  0  0
   -3.4930   -1.8380  -16.8660 C   0  0  0  0  0  0  0  0  0  0  0  0
   -2.4730   -1.1380  -17.4870 C   0  0  0  0  0  0  0  0  0  0  0  0
   -8.0460   -2.9660  -16.4370 C   0  0  0  0  0  0  0  0  0  0  0  0
   -4.6480   -1.6730  -17.7400 C   0  0  0  0  0  0  0  0  0  0  0  0
   -6.1510   -3.1930  -15.5810 C   0  0  0  0  0  0  0  0  0  0  0  0
   -6.2450   -0.9330  -19.9200 N   0  0  0  0  0  0  0  0  0  0  0  0
   -4.2040   -0.9770  -18.8690 C   0  0  0  0  0  0  0  0  0  0  0  0
   -9.2030   -2.5440  -17.2350 C   0  0  0  0  0  0  0  0  0  0  0  0
   -2.9450   -0.6850  -18.6090 N   0  0  0  0  0  0  0  0  0  0  0  0
   -7.0070   -3.9670  -14.8810 N   0  0  0  0  0  0  0  0  0  0  0  0
   -3.2240   -2.4770  -15.6600 C   0  0  0  0  0  0  0  0  0  0  0  0
   -4.9140   -0.6640  -19.9160 C   0  0  0  0  0  0  0  0  0  0  0  0
   -6.0760   -1.9800  -17.7310 C   0  0  0  0  0  0  0  0  0  0  0  0
   -0.9430   -1.5650  -15.6940 C   0  0  0  0  0  0  0  0  0  0  0  0
   -6.7890   -2.6610  -16.6050 C   0  0  0  0  0  0  0  0  0  0  0  0
   -8.1860   -3.7240  -15.3820 N   0  0  0  0  0  0  0  0  0  0  0  0
   -6.7830   -1.5970  -18.8460 C   0  0  0  0  0  0  0  0  0  0  0  0
   -2.0000   -2.2860  -15.1150 C   0  0  0  0  0  0  0  0  0  0  0  0
  1 15  1  0
  2 12  1  0
  3  1  2  0
  3  2  1  0
  4 17  4  0
  5 14  4  0
  5  2  2  0
  6 11  4  0
  7 13  4  0
  7 18  4  0
  8 10  2  0
  8  5  4  0
  9  4  1  0
 10  3  1  0
 12 19  2  0
 13  8  4  0
 14 16  1  0
 15 19  1  0
 16  4  4  0
 16  6  4  0
 17 11  4  0
 18 14  4  0
M  END
$$$$

     RDKit          3D

 19 22  0  0  0  0  0  0  0  0999 V2000
   -1.2230   -1.3940  -16.9040 C   0  0  0  0  0  0  0  0  0  0  0  0
   -3.5330   -2.0550  -16.8390 C   0  0  0  0  0  0  0  0  0  0  0  0
   -2.4790   -1.4550  -17.4910 C   0  0  0  0  0  0  0  0  0  0  0  0
   -8.3650   -2.9090  -16.6250 C   0  0  0  0  0  0  0  0  0  0  0  0
   -4.7720   -1.7820  -17.6760 C   0  0  0  0  0  0  0  0  0  0  0  0
   -6.4680   -3.2810  -15.5240 C   0  0  0  0  0  0  0  0  0  0  0  0
   -6.5230   -0.9810  -19.7590 C   0  0  0  0  0  0  0  0  0  0  0  0
   -4.2750   -1.2020  -18.8360 N   0  0  0  0  0  0  0  0  0  0  0  0
   -9.3310   -2.4540  -17.4160 N   0  0  0  0  0  0  0  0  0  0  0  0
   -2.9000   -1.0200  -18.7550 N   0  0  0  0  0  0  0  0  0  0  0  0
   -7.4360   -3.9210  -14.9250 N   0  0  0  0  0  0  0  0  0  0  0  0
   -3.3390   -2.5190  -15.5460 C   0  0  0  0  0  0  0  0  0  0  0  0
   -5.1320   -0.8180  -19.8720 C   0  0  0  0  0  0  0  0  0  0  0  0
   -6.1540   -1.9870  -17.6580 C   0  0  0  0  0  0  0  0  0  0  0  0
   -1.0260   -1.9110  -15.6700 C   0  0  0  0  0  0  0  0  0  0  0  0
   -6.8780   -2.7150  -16.6450 C   0  0  0  0  0  0  0  0  0  0  0  0
   -8.5480   -3.6620  -15.6170 N   0  0  0  0  0  0  0  0  0  0  0  0
   -6.9890   -1.5540  -18.6710 N   0  0  0  0  0  0  0  0  0  0  0  0
   -2.1070   -2.4880  -15.0120 C   0  0  0  0  0  0  0  0  0  0  0  0
  1 15  4  0
  2 12  4  0
  3  1  4  0
  3  2  4  0
  4 17  4  0
  5 14  4  0
  5  2  4  0
  6 11  4  0
  7 18  4  0
  8 10  4  0
  8  5  4  0
  9  4  1  0
 10  3  4  0
 12 19  4  0
 13  7  4  0
 13  8  4  0
 14 16  1  0
 15 19  4  0
 16  4  4  0
 16  6  4  0
 17 11  4  0
 18 14  4  0
M  END
$$$$

     RDKit          3D

 19 22  0  0  0  0  0  0  0  0999 V2000
   -1.2590   -1.0530  -16.8700 C   0  0  0  0  0  0  0  0  0  0  0  0
   -3.4910   -1.9230  -16.8530 C   0  0  0  0  0  0  0  0  0  0  0  0
   -2.4060   -1.3250  -17.5000 C   0  0  0  0  0  0  0  0  0  0  0  0
   -8.1020   -2.7880  -16.4330 C   0  0  0  0  0  0  0  0  0  0  0  0
   -4.6550   -1.6970  -17.7200 C   0  0  0  0  0  0  0  0  0  0  0  0
   -6.1350   -3.0690  -15.5990 N   0  0  0  0  0  0  0  0  0  0  0  0
   -6.3090   -0.7340  -19.8020 C   0  0  0  0  0  0  0  0  0  0  0  0
   -4.1850   -0.9200  -18.8490 C   0  0  0  0  0  0  0  0  0  0  0  0
   -9.2350   -2.5260  -17.3410 C   0  0  0  0  0  0  0  0  0  0  0  0
   -2.8710   -0.7670  -18.6950 N   0  0  0  0  0  0  0  0  0  0  0  0
   -7.0090   -3.6480  -14.7830 N   0  0  0  0  0  0  0  0  0  0  0  0
   -3.2540   -2.7000  -15.6930 C   0  0  0  0  0  0  0  0  0  0  0  0
   -4.9790   -0.5130  -19.8650 C   0  0  0  0  0  0  0  0  0  0  0  0
   -6.0940   -1.8450  -17.7160 C   0  0  0  0  0  0  0  0  0  0  0  0
   -0.9700   -1.6810  -15.7150 C   0  0  0  0  0  0  0  0  0  0  0  0
   -6.7670   -2.5020  -16.6090 C   0  0  0  0  0  0  0  0  0  0  0  0
   -8.2080   -3.4700  -15.2980 N   0  0  0  0  0  0  0  0  0  0  0  0
   -6.8770   -1.3900  -18.7840 C   0  0  0  0  0  0  0  0  0  0  0  0
   -1.9750   -2.5530  -15.1470 C   0  0  0  0  0  0  0  0  0  0  0  0
  1 15  1  0
  2 12  1  0
  3  1  2  0
  3  2  1  0
  4 17  4  0
  5 14  4  0
  5  2  2  0
  6 11  4  0
  7 18  4  0
  8 10  2  0
  8  5  4  0
  9  4  1  0
 10  3  1  0
 12 19  2  0
 13  7  4  0
 13  8  4  0
 14 16  1  0
 15 19  1  0
 16  4  4  0
 16  6  4  0
 17 11  4  0
 18 14  4  0
M  END
$$$$

     RDKit          3D

 19 22  0  0  0  0  0  0  0  0999 V2000
   -1.3530   -1.0730  -16.8340 C   0  0  0  0  0  0  0  0  0  0  0  0
   -3.6360   -1.7950  -16.9940 C   0  0  0  0  0  0  0  0  0  0  0  0
   -2.5560   -1.1770  -17.5020 C   0  0  0  0  0  0  0  0  0  0  0  0
   -8.0450   -2.8680  -16.4670 C   0  0  0  0  0  0  0  0  0  0  0  0
   -4.8250   -1.6160  -17.8990 C   0  0  0  0  0  0  0  0  0  0  0  0
   -5.9970   -3.0220  -15.6200 N   0  0  0  0  0  0  0  0  0  0  0  0
   -6.3930   -0.9240  -20.0280 C   0  0  0  0  0  0  0  0  0  0  0  0
   -4.2820   -0.9660  -18.9510 C   0  0  0  0  0  0  0  0  0  0  0  0
   -9.2470   -2.6280  -17.2710 C   0  0  0  0  0  0  0  0  0  0  0  0
   -2.8720   -0.6770  -18.7050 N   0  0  0  0  0  0  0  0  0  0  0  0
   -6.8700   -3.6540  -14.7850 N   0  0  0  0  0  0  0  0  0  0  0  0
   -3.5170   -2.5000  -15.8040 C   0  0  0  0  0  0  0  0  0  0  0  0
   -4.9840   -0.5780  -20.0940 C   0  0  0  0  0  0  0  0  0  0  0  0
   -6.1750   -1.8820  -17.8380 C   0  0  0  0  0  0  0  0  0  0  0  0
   -1.2680   -1.7940  -15.5980 C   0  0  0  0  0  0  0  0  0  0  0  0
   -6.6500   -2.6090  -16.7540 C   0  0  0  0  0  0  0  0  0  0  0  0
   -8.0920   -3.5300  -15.2750 N   0  0  0  0  0  0  0  0  0  0  0  0
   -6.9280   -1.5150  -18.8860 C   0  0  0  0  0  0  0  0  0  0  0  0
   -2.3170   -2.4890  -15.0240 C   0  0  0  0  0  0  0  0  0  0  0  0
  1 15  1  0
  2 12  1  0
  3  2  1  0
  3  1  2  0
  4 17  4  0
  5 14  4  0
  5  2  2  0
  6 11  4  0
  7 18  4  0
  8 10  2  0
  8  5  4  0
  9  4  1  0
 10  3  1  0
 12 19  2  0
 13  7  4  0
 13  8  4  0
 14 16  1  0
 15 19  1  0
 16  4  4  0
 16  6  4  0
 17 11  4  0
 18 14  4  0
M  END
$$$$

     RDKit          3D

 19 22  0  0  0  0  0  0  0  0999 V2000
   -1.1520   -1.3570  -16.9200 N   0  0  0  0  0  0  0  0  0  0  0  0
   -3.5740   -1.9260  -16.7950 C   0  0  0  0  0  0  0  0  0  0  0  0
   -2.3940   -1.3780  -17.4420 C   0  0  0  0  0  0  0  0  0  0  0  0
   -8.2340   -3.1580  -16.4800 C   0  0  0  0  0  0  0  0  0  0  0  0
   -4.7490   -1.7670  -17.6970 C   0  0  0  0  0  0  0  0  0  0  0  0
   -6.2820   -3.1040  -15.2580 C   0  0  0  0  0  0  0  0  0  0  0  0
   -6.5660   -1.1280  -19.8180 C   0  0  0  0  0  0  0  0  0  0  0  0
   -4.2940   -1.0460  -18.9200 C   0  0  0  0  0  0  0  0  0  0  0  0
   -9.1570   -2.9110  -17.3930 O   0  0  0  0  0  0  0  0  0  0  0  0
   -2.8610   -0.8160  -18.6390 N   0  0  0  0  0  0  0  0  0  0  0  0
   -7.2340   -3.8790  -14.6220 C   0  0  0  0  0  0  0  0  0  0  0  0
   -3.3170   -2.5470  -15.5090 C   0  0  0  0  0  0  0  0  0  0  0  0
   -5.1760   -0.7010  -19.9590 C   0  0  0  0  0  0  0  0  0  0  0  0
   -6.1790   -2.0590  -17.6020 C   0  0  0  0  0  0  0  0  0  0  0  0
   -0.9700   -1.8710  -15.5500 C   0  0  0  0  0  0  0  0  0  0  0  0
   -6.8350   -2.6860  -16.5360 C   0  0  0  0  0  0  0  0  0  0  0  0
   -8.4250   -3.8430  -15.3450 N   0  0  0  0  0  0  0  0  0  0  0  0
   -7.0080   -1.6540  -18.6890 N   0  0  0  0  0  0  0  0  0  0  0  0
   -2.0600   -2.5510  -14.9120 C   0  0  0  0  0  0  0  0  0  0  0  0
  1 15  1  0
  2 12  1  0
  3  1  2  0
  3  2  1  0
  4 17  1  0
  5 14  4  0
  5  2  1  0
  6 11  2  0
  7 18  4  0
  8 10  1  0
  8  5  4  0
  9  4  2  0
 10  3  1  0
 12 19  2  0
 13  7  4  0
 13  8  4  0
 15 19  1  0
 16 14  1  0
 16  4  1  0
 16  6  1  0
 17 11  1  0
 18 14  4  0
M  END
$$$$

     RDKit          3D

 19 22  0  0  0  0  0  0  0  0999 V2000
   -1.4740   -1.3140  -17.2020 C   0  0  0  0  0  0  0  0  0  0  0  0
   -3.8060   -2.0270  -17.0020 C   0  0  0  0  0  0  0  0  0  0  0  0
   -2.6720   -1.6460  -17.7370 N   0  0  0  0  0  0  0  0  0  0  0  0
   -8.5660   -3.0960  -16.4280 N   0  0  0  0  0  0  0  0  0  0  0  0
   -5.0160   -1.8360  -17.7480 C   0  0  0  0  0  0  0  0  0  0  0  0
   -6.6770   -3.3110  -15.3330 C   0  0  0  0  0  0  0  0  0  0  0  0
   -6.7510   -0.9990  -19.6950 C   0  0  0  0  0  0  0  0  0  0  0  0
   -4.6140   -1.1680  -18.9340 C   0  0  0  0  0  0  0  0  0  0  0  0
   -9.6400   -2.9080  -17.4260 C   0  0  0  0  0  0  0  0  0  0  0  0
   -3.1680   -1.0920  -18.8920 N   0  0  0  0  0  0  0  0  0  0  0  0
   -7.7260   -3.8090  -14.4470 N   0  0  0  0  0  0  0  0  0  0  0  0
   -3.4600   -2.6880  -15.8930 C   0  0  0  0  0  0  0  0  0  0  0  0
   -5.4470   -0.7600  -19.9090 N   0  0  0  0  0  0  0  0  0  0  0  0
   -6.4410   -2.1040  -17.6320 C   0  0  0  0  0  0  0  0  0  0  0  0
   -1.2210   -1.8380  -15.8790 C   0  0  0  0  0  0  0  0  0  0  0  0
   -7.1530   -2.8440  -16.5110 C   0  0  0  0  0  0  0  0  0  0  0  0
   -8.8800   -3.6520  -15.3190 C   0  0  0  0  0  0  0  0  0  0  0  0
   -7.2130   -1.5630  -18.6480 N   0  0  0  0  0  0  0  0  0  0  0  0
   -2.2120   -2.5400  -15.2860 C   0  0  0  0  0  0  0  0  0  0  0  0
  1 15  1  0
  2 12  2  0
  3  1  1  0
  3  2  4  0
  4 17  4  0
  5 14  2  0
  5  2  4  0
  6 11  4  0
  7 18  2  0
  8 10  4  0
  8  5  4  0
  9  4  1  0
 10  3  4  0
 12 19  1  0
 13  7  1  0
 13  8  1  0
 14 16  1  0
 15 19  2  0
 16  4  4  0
 16  6  4  0
 17 11  4  0
 18 14  1  0
M  END
$$$$

     RDKit          3D

 19 22  0  0  0  0  0  0  0  0999 V2000
   -1.4330   -0.6370  -16.7930 C   0  0  0  0  0  0  0  0  0  0  0  0
   -3.6650   -1.6970  -16.9340 C   0  0  0  0  0  0  0  0  0  0  0  0
   -2.6050   -0.9960  -17.4860 C   0  0  0  0  0  0  0  0  0  0  0  0
   -8.2320   -2.7350  -16.5100 C   0  0  0  0  0  0  0  0  0  0  0  0
   -4.8290   -1.4490  -17.8700 C   0  0  0  0  0  0  0  0  0  0  0  0
   -6.1050   -2.9990  -15.7070 N   0  0  0  0  0  0  0  0  0  0  0  0
   -6.4980   -0.8100  -19.9620 C   0  0  0  0  0  0  0  0  0  0  0  0
   -4.3370   -0.8750  -18.9770 C   0  0  0  0  0  0  0  0  0  0  0  0
   -9.3460   -2.4730  -17.2070 N   0  0  0  0  0  0  0  0  0  0  0  0
   -3.0420   -0.6350  -18.6760 N   0  0  0  0  0  0  0  0  0  0  0  0
   -7.0090   -3.6700  -14.9430 C   0  0  0  0  0  0  0  0  0  0  0  0
   -3.5280   -2.4250  -15.7610 C   0  0  0  0  0  0  0  0  0  0  0  0
   -5.0920   -0.5410  -20.0470 C   0  0  0  0  0  0  0  0  0  0  0  0
   -6.3030   -1.7910  -17.7660 C   0  0  0  0  0  0  0  0  0  0  0  0
   -1.2990   -1.5290  -15.5690 C   0  0  0  0  0  0  0  0  0  0  0  0
   -6.8970   -2.4760  -16.6750 C   0  0  0  0  0  0  0  0  0  0  0  0
   -8.3100   -3.5210  -15.3660 N   0  0  0  0  0  0  0  0  0  0  0  0
   -7.0080   -1.4330  -18.8450 C   0  0  0  0  0  0  0  0  0  0  0  0
   -2.2380   -2.2960  -15.1370 C   0  0  0  0  0  0  0  0  0  0  0  0
  1 15  1  0
  2 12  1  0
  3  2  1  0
  3  1  2  0
  4 17  4  0
  5 14  4  0
  5  2  2  0
  6 11  4  0
  7 18  4  0
  8 10  2  0
  8  5  4  0
  9  4  1  0
 10  3  1  0
 12 19  2  0
 13  7  4  0
 13  8  4  0
 14 16  1  0
 15 19  1  0
 16  4  4  0
 16  6  4  0
 17 11  4  0
 18 14  4  0
M  END
$$$$

     RDKit          3D

 19 22  0  0  0  0  0  0  0  0999 V2000
   -1.4590   -0.7260  -16.9710 C   0  0  0  0  0  0  0  0  0  0  0  0
   -3.7300   -1.6610  -17.1370 C   0  0  0  0  0  0  0  0  0  0  0  0
   -2.6410   -0.9930  -17.6510 C   0  0  0  0  0  0  0  0  0  0  0  0
   -8.1640   -2.9060  -16.5090 C   0  0  0  0  0  0  0  0  0  0  0  0
   -4.8780   -1.5480  -17.9530 C   0  0  0  0  0  0  0  0  0  0  0  0
   -6.1690   -3.0170  -15.5040 N   0  0  0  0  0  0  0  0  0  0  0  0
   -6.7980   -0.9790  -19.9500 C   0  0  0  0  0  0  0  0  0  0  0  0
   -4.5470   -0.8970  -19.1590 C   0  0  0  0  0  0  0  0  0  0  0  0
   -9.1830   -2.5900  -17.2300 N   0  0  0  0  0  0  0  0  0  0  0  0
   -2.8950   -0.5300  -19.2530 S   0  0  0  0  0  0  0  0  0  0  0  0
   -7.0590   -3.5980  -14.7030 N   0  0  0  0  0  0  0  0  0  0  0  0
   -3.5060   -2.4170  -15.9790 C   0  0  0  0  0  0  0  0  0  0  0  0
   -5.4970   -0.6250  -20.1400 C   0  0  0  0  0  0  0  0  0  0  0  0
   -6.2510   -1.9290  -17.8140 C   0  0  0  0  0  0  0  0  0  0  0  0
   -1.2940   -1.3730  -15.7240 C   0  0  0  0  0  0  0  0  0  0  0  0
   -6.7540   -2.5220  -16.5960 C   0  0  0  0  0  0  0  0  0  0  0  0
   -8.3160   -3.6770  -15.3170 N   0  0  0  0  0  0  0  0  0  0  0  0
   -7.1930   -1.6860  -18.7580 C   0  0  0  0  0  0  0  0  0  0  0  0
   -2.3460   -2.2320  -15.2930 C   0  0  0  0  0  0  0  0  0  0  0  0
  1 15  4  0
  2 12  4  0
  3  2  4  0
  3  1  4  0
  4 17  4  0
  5 14  4  0
  5  2  4  0
  6 11  4  0
  7 18  4  0
  8  5  4  0
  9  4  1  0
 10  8  4  0
 10  3  4  0
 12 19  4  0
 13  7  4  0
 13  8  4  0
 14 16  1  0
 15 19  4  0
 16  4  4  0
 16  6  4  0
 17 11  4  0
 18 14  4  0
M  END
$$$$

     RDKit          3D

 19 22  0  0  0  0  0  0  0  0999 V2000
   -1.3770   -1.4020  -17.0330 C   0  0  0  0  0  0  0  0  0  0  0  0
   -3.7190   -1.9760  -17.0420 C   0  0  0  0  0  0  0  0  0  0  0  0
   -2.6240   -1.4690  -17.6450 C   0  0  0  0  0  0  0  0  0  0  0  0
   -8.2710   -2.6670  -16.6320 C   0  0  0  0  0  0  0  0  0  0  0  0
   -4.8490   -1.7070  -17.8460 C   0  0  0  0  0  0  0  0  0  0  0  0
   -6.2940   -2.8790  -15.6880 C   0  0  0  0  0  0  0  0  0  0  0  0
   -6.4770   -0.8970  -19.9700 C   0  0  0  0  0  0  0  0  0  0  0  0
   -4.2940   -0.9640  -18.9960 C   0  0  0  0  0  0  0  0  0  0  0  0
   -9.4160   -2.1980  -17.3900 C   0  0  0  0  0  0  0  0  0  0  0  0
   -3.0060   -0.8920  -18.8590 N   0  0  0  0  0  0  0  0  0  0  0  0
   -7.2660   -3.4040  -14.8380 N   0  0  0  0  0  0  0  0  0  0  0  0
   -3.6080   -2.6730  -15.8160 C   0  0  0  0  0  0  0  0  0  0  0  0
   -5.1440   -0.5580  -19.9890 C   0  0  0  0  0  0  0  0  0  0  0  0
   -6.2590   -1.8310  -17.9120 C   0  0  0  0  0  0  0  0  0  0  0  0
   -1.2610   -2.1190  -15.8930 C   0  0  0  0  0  0  0  0  0  0  0  0
   -6.9050   -2.4410  -16.7980 C   0  0  0  0  0  0  0  0  0  0  0  0
   -8.3760   -3.2040  -15.4400 N   0  0  0  0  0  0  0  0  0  0  0  0
   -6.9560   -1.5350  -18.9750 N   0  0  0  0  0  0  0  0  0  0  0  0
   -2.2970   -2.7880  -15.2620 C   0  0  0  0  0  0  0  0  0  0  0  0
  1 15  1  0
  2 12  1  0
  3  2  1  0
  3  1  2  0
  4 17  4  0
  5  2  2  0
  6 11  4  0
  7 18  4  0
  8 10  2  0
  8  5  4  0
  9  4  1  0
 10  3  1  0
 12 19  2  0
 13  7  4  0
 13  8  4  0
 14  5  4  0
 14 16  1  0
 15 19  1  0
 16  4  4  0
 16  6  4  0
 17 11  4  0
 18 14  4  0
M  END
$$$$

     RDKit          3D

 19 22  0  0  0  0  0  0  0  0999 V2000
   -1.3780   -1.1990  -17.2450 C   0  0  0  0  0  0  0  0  0  0  0  0
   -3.5820   -1.8430  -17.0880 C   0  0  0  0  0  0  0  0  0  0  0  0
   -2.5870   -1.1880  -17.7440 C   0  0  0  0  0  0  0  0  0  0  0  0
   -8.0330   -2.9910  -16.3980 C   0  0  0  0  0  0  0  0  0  0  0  0
   -4.8690   -1.5760  -17.8740 C   0  0  0  0  0  0  0  0  0  0  0  0
   -6.0320   -3.0350  -15.6560 N   0  0  0  0  0  0  0  0  0  0  0  0
   -6.6110   -0.9550  -19.6330 C   0  0  0  0  0  0  0  0  0  0  0  0
   -4.4070   -0.9630  -18.9800 C   0  0  0  0  0  0  0  0  0  0  0  0
   -9.2690   -2.8230  -17.1980 C   0  0  0  0  0  0  0  0  0  0  0  0
   -3.0650   -0.7180  -18.9710 N   0  0  0  0  0  0  0  0  0  0  0  0
   -6.8910   -3.7060  -14.7310 N   0  0  0  0  0  0  0  0  0  0  0  0
   -3.4530   -2.5900  -15.9850 C   0  0  0  0  0  0  0  0  0  0  0  0
   -5.3230   -0.6590  -19.8520 N   0  0  0  0  0  0  0  0  0  0  0  0
   -6.1990   -1.8610  -17.7350 C   0  0  0  0  0  0  0  0  0  0  0  0
   -1.1020   -1.9570  -16.1150 C   0  0  0  0  0  0  0  0  0  0  0  0
   -6.8010   -2.5430  -16.6670 C   0  0  0  0  0  0  0  0  0  0  0  0
   -8.1060   -3.6350  -15.2560 N   0  0  0  0  0  0  0  0  0  0  0  0
   -7.0680   -1.4630  -18.7440 C   0  0  0  0  0  0  0  0  0  0  0  0
   -2.1180   -2.6370  -15.5030 C   0  0  0  0  0  0  0  0  0  0  0  0
  1 15  4  0
  2 12  4  0
  3  1  4  0
  3  2  4  0
  4 17  4  0
  5  8  1  0
  5 14  1  0
  5  2  1  0
  6 11  4  0
  7 18  1  0
  8 10  2  0
  9  4  1  0
 10  3  1  0
 12 19  4  0
 13  7  2  0
 13  8  1  0
 14 16  1  0
 15 19  4  0
 16  4  4  0
 16  6  4  0
 17 11  4  0
 18 14  2  0
M  END
$$$$

     RDKit          3D

 19 22  0  0  0  0  0  0  0  0999 V2000
   -1.5020   -1.1300  -17.0090 C   0  0  0  0  0  0  0  0  0  0  0  0
   -3.8260   -2.0040  -16.9650 C   0  0  0  0  0  0  0  0  0  0  0  0
   -2.7980   -1.2090  -17.6320 C   0  0  0  0  0  0  0  0  0  0  0  0
   -8.4140   -3.2050  -16.5840 C   0  0  0  0  0  0  0  0  0  0  0  0
   -5.0570   -1.8200  -17.8440 C   0  0  0  0  0  0  0  0  0  0  0  0
   -6.7080   -3.0950  -15.3200 C   0  0  0  0  0  0  0  0  0  0  0  0
   -6.8310   -1.1030  -19.8390 C   0  0  0  0  0  0  0  0  0  0  0  0
   -4.6400   -1.0610  -18.9130 C   0  0  0  0  0  0  0  0  0  0  0  0
   -9.2820   -3.5370  -17.7670 C   0  0  0  0  0  0  0  0  0  0  0  0
   -3.3110   -0.7160  -18.8010 N   0  0  0  0  0  0  0  0  0  0  0  0
   -7.5730   -3.7210  -14.5470 C   0  0  0  0  0  0  0  0  0  0  0  0
   -3.5200   -2.7090  -15.8550 C   0  0  0  0  0  0  0  0  0  0  0  0
   -5.5650   -0.7310  -19.9280 C   0  0  0  0  0  0  0  0  0  0  0  0
   -6.4080   -2.1330  -17.7730 C   0  0  0  0  0  0  0  0  0  0  0  0
   -1.2520   -1.8640  -15.9140 C   0  0  0  0  0  0  0  0  0  0  0  0
   -7.1130   -2.7480  -16.5660 C   0  0  0  0  0  0  0  0  0  0  0  0
   -8.7990   -3.5980  -15.3690 O   0  0  0  0  0  0  0  0  0  0  0  0
   -7.2610   -1.7060  -18.7700 N   0  0  0  0  0  0  0  0  0  0  0  0
   -2.2170   -2.6250  -15.3430 C   0  0  0  0  0  0  0  0  0  0  0  0
  1 15  1  0
  2 12  1  0
  3  1  2  0
  3  2  1  0
  4  9  1  0
  4 16  1  0
  4 17  1  0
  5 14  4  0
  5  2  2  0
  6 11  1  0
  7 18  4  0
  8 10  2  0
  8  5  4  0
 10  3  1  0
 12 19  2  0
 13  7  4  0
 13  8  4  0
 14 16  1  0
 15 19  1  0
 16  6  2  0
 17 11  1  0
 18 14  4  0
M  END
$$$$

     RDKit          3D

 19 22  0  0  0  0  0  0  0  0999 V2000
   -1.2720   -0.7110  -16.9520 C   0  0  0  0  0  0  0  0  0  0  0  0
   -3.4350   -1.6700  -17.0710 C   0  0  0  0  0  0  0  0  0  0  0  0
   -2.3890   -1.0980  -17.5810 C   0  0  0  0  0  0  0  0  0  0  0  0
   -7.9640   -2.8650  -16.3890 C   0  0  0  0  0  0  0  0  0  0  0  0
   -4.5300   -1.5540  -17.7940 C   0  0  0  0  0  0  0  0  0  0  0  0
   -5.7930   -2.9490  -15.6080 N   0  0  0  0  0  0  0  0  0  0  0  0
   -6.2820   -0.8750  -19.8460 C   0  0  0  0  0  0  0  0  0  0  0  0
   -4.1300   -0.9180  -18.9380 C   0  0  0  0  0  0  0  0  0  0  0  0
   -9.1810   -2.6130  -17.1820 C   0  0  0  0  0  0  0  0  0  0  0  0
   -2.7910   -0.6920  -18.7780 N   0  0  0  0  0  0  0  0  0  0  0  0
   -6.6490   -3.5710  -14.8850 N   0  0  0  0  0  0  0  0  0  0  0  0
   -3.1910   -2.3890  -15.8910 C   0  0  0  0  0  0  0  0  0  0  0  0
   -4.9520   -0.5950  -20.0140 C   0  0  0  0  0  0  0  0  0  0  0  0
   -5.8890   -1.8520  -17.6860 C   0  0  0  0  0  0  0  0  0  0  0  0
   -0.9970   -1.4060  -15.7840 C   0  0  0  0  0  0  0  0  0  0  0  0
   -6.5320   -2.4930  -16.6310 C   0  0  0  0  0  0  0  0  0  0  0  0
   -7.9480   -3.6110  -15.2290 N   0  0  0  0  0  0  0  0  0  0  0  0
   -6.7800   -1.4380  -18.7270 C   0  0  0  0  0  0  0  0  0  0  0  0
   -1.9660   -2.1940  -15.2750 C   0  0  0  0  0  0  0  0  0  0  0  0
  1 15  1  0
  2 12  1  0
  3  2  1  0
  3  1  1  0
  4 17  4  0
  5 14  4  0
  5  2  2  0
  6 11  4  0
  7 18  4  0
  8 10  2  0
  8  5  4  0
  9  4  1  0
 10  3  1  0
 12 19  1  0
 13  7  4  0
 13  8  4  0
 14 16  1  0
 15 19  2  0
 16  4  4  0
 16  6  4  0
 17 11  4  0
 18 14  4  0
M  END
$$$$

     RDKit          3D

 19 22  0  0  0  0  0  0  0  0999 V2000
   -1.5310   -1.0760  -16.9310 C   0  0  0  0  0  0  0  0  0  0  0  0
   -3.8090   -1.6650  -17.0400 C   0  0  0  0  0  0  0  0  0  0  0  0
   -2.7350   -1.0010  -17.5490 C   0  0  0  0  0  0  0  0  0  0  0  0
   -8.3600   -2.9020  -16.5080 C   0  0  0  0  0  0  0  0  0  0  0  0
   -4.9990   -1.5420  -17.9060 C   0  0  0  0  0  0  0  0  0  0  0  0
   -6.3830   -3.0440  -15.5640 C   0  0  0  0  0  0  0  0  0  0  0  0
   -6.6120   -0.8700  -20.0300 C   0  0  0  0  0  0  0  0  0  0  0  0
   -4.4490   -0.8110  -19.0260 C   0  0  0  0  0  0  0  0  0  0  0  0
   -9.5440   -2.7700  -17.3640 C   0  0  0  0  0  0  0  0  0  0  0  0
   -3.1450   -0.5610  -18.8120 N   0  0  0  0  0  0  0  0  0  0  0  0
   -7.2380   -3.6610  -14.7700 N   0  0  0  0  0  0  0  0  0  0  0  0
   -3.5970   -2.4530  -15.8510 C   0  0  0  0  0  0  0  0  0  0  0  0
   -5.3340   -0.5380  -20.0260 C   0  0  0  0  0  0  0  0  0  0  0  0
   -6.3480   -1.9350  -17.8000 C   0  0  0  0  0  0  0  0  0  0  0  0
   -1.3320   -1.6740  -15.7570 C   0  0  0  0  0  0  0  0  0  0  0  0
   -6.9690   -2.5810  -16.6800 C   0  0  0  0  0  0  0  0  0  0  0  0
   -8.5120   -3.5690  -15.3210 N   0  0  0  0  0  0  0  0  0  0  0  0
   -7.1980   -1.5520  -18.9460 C   0  0  0  0  0  0  0  0  0  0  0  0
   -2.3330   -2.4280  -15.2370 C   0  0  0  0  0  0  0  0  0  0  0  0
  1 15  1  0
  2 12  1  0
  3  2  1  0
  3  1  2  0
  4 17  4  0
  5 14  4  0
  5  2  2  0
  6 11  4  0
  7 13  4  0
  7 18  4  0
  8 10  2  0
  8  5  4  0
  9  4  1  0
 10  3  1  0
 12 19  2  0
 13  8  4  0
 14 16  1  0
 15 19  1  0
 16  4  4  0
 16  6  4  0
 17 11  4  0
 18 14  4  0
M  END
$$$$

     RDKit          3D

 19 22  0  0  0  0  0  0  0  0999 V2000
   -1.1640   -1.4050  -17.3510 C   0  0  0  0  0  0  0  0  0  0  0  0
   -3.4900   -1.9990  -17.1830 C   0  0  0  0  0  0  0  0  0  0  0  0
   -2.4640   -1.3800  -17.9280 C   0  0  0  0  0  0  0  0  0  0  0  0
   -8.1110   -2.7610  -16.5480 N   0  0  0  0  0  0  0  0  0  0  0  0
   -4.7540   -1.6220  -18.0150 C   0  0  0  0  0  0  0  0  0  0  0  0
   -6.1660   -2.9830  -15.7030 N   0  0  0  0  0  0  0  0  0  0  0  0
   -6.5180   -0.7370  -19.9990 C   0  0  0  0  0  0  0  0  0  0  0  0
   -4.2760   -1.0280  -19.1650 C   0  0  0  0  0  0  0  0  0  0  0  0
   -9.2500   -2.3630  -17.2940 C   0  0  0  0  0  0  0  0  0  0  0  0
   -2.8940   -0.9030  -19.0990 N   0  0  0  0  0  0  0  0  0  0  0  0
   -7.1110   -3.5330  -14.8660 N   0  0  0  0  0  0  0  0  0  0  0  0
   -3.0640   -2.6740  -16.0130 C   0  0  0  0  0  0  0  0  0  0  0  0
   -5.1820   -0.6080  -20.1650 C   0  0  0  0  0  0  0  0  0  0  0  0
   -6.1480   -1.8580  -17.8610 C   0  0  0  0  0  0  0  0  0  0  0  0
   -0.8160   -2.0410  -16.3330 N   0  0  0  0  0  0  0  0  0  0  0  0
   -6.7870   -2.5380  -16.7570 C   0  0  0  0  0  0  0  0  0  0  0  0
   -8.2540   -3.3770  -15.3800 C   0  0  0  0  0  0  0  0  0  0  0  0
   -7.0360   -1.3230  -18.8120 C   0  0  0  0  0  0  0  0  0  0  0  0
   -1.7480   -2.6600  -15.6730 C   0  0  0  0  0  0  0  0  0  0  0  0
  1 15  4  0
  2 12  4  0
  3  1  4  0
  3  2  1  0
  4 17  4  0
  5 14  4  0
  5  2  4  0
  6 11  4  0
  7 18  4  0
  8 10  4  0
  8  5  4  0
  9  4  1  0
 10  3  4  0
 12 19  4  0
 13  7  4  0
 13  8  4  0
 14 16  1  0
 15 19  4  0
 16  4  4  0
 16  6  4  0
 17 11  4  0
 18 14  4  0
M  END
$$$$

     RDKit          3D

 19 22  0  0  0  0  0  0  0  0999 V2000
   -1.2860   -0.6260  -17.1640 C   0  0  0  0  0  0  0  0  0  0  0  0
   -3.4940   -1.6630  -17.0400 C   0  0  0  0  0  0  0  0  0  0  0  0
   -2.4930   -1.0190  -17.8010 C   0  0  0  0  0  0  0  0  0  0  0  0
   -8.0000   -3.2180  -16.3810 N   0  0  0  0  0  0  0  0  0  0  0  0
   -4.7180   -1.5400  -17.8280 C   0  0  0  0  0  0  0  0  0  0  0  0
   -6.0520   -3.0370  -15.4840 C   0  0  0  0  0  0  0  0  0  0  0  0
   -6.4560   -0.8450  -19.8750 N   0  0  0  0  0  0  0  0  0  0  0  0
   -4.3030   -0.9600  -19.0220 C   0  0  0  0  0  0  0  0  0  0  0  0
   -9.1570   -3.2140  -17.2200 C   0  0  0  0  0  0  0  0  0  0  0  0
   -2.9250   -0.7210  -19.0380 N   0  0  0  0  0  0  0  0  0  0  0  0
   -6.9120   -3.6740  -14.5980 N   0  0  0  0  0  0  0  0  0  0  0  0
   -3.2140   -2.2310  -15.7870 C   0  0  0  0  0  0  0  0  0  0  0  0
   -5.1760   -0.6350  -20.0070 C   0  0  0  0  0  0  0  0  0  0  0  0
   -6.1440   -1.9290  -17.6940 C   0  0  0  0  0  0  0  0  0  0  0  0
   -0.9670   -1.2150  -15.9830 C   0  0  0  0  0  0  0  0  0  0  0  0
   -6.8020   -2.6080  -16.6260 C   0  0  0  0  0  0  0  0  0  0  0  0
   -8.1240   -3.7000  -15.1970 N   0  0  0  0  0  0  0  0  0  0  0  0
   -6.9960   -1.4480  -18.7560 C   0  0  0  0  0  0  0  0  0  0  0  0
   -1.8870   -1.9690  -15.2740 C   0  0  0  0  0  0  0  0  0  0  0  0
  1 15  1  0
  2 12  1  0
  3  1  2  0
  3  2  1  0
  4 17  1  0
  5 14  4  0
  5  2  2  0
  6 11  1  0
  7 18  4  0
  8  5  4  0
  9  4  1  0
 10  8  2  0
 10  3  1  0
 12 19  2  0
 13  7  4  0
 13  8  4  0
 15 19  1  0
 16 14  1  0
 16  4  1  0
 16  6  1  0
 17 11  1  0
 18 14  4  0
M  END
$$$$

     RDKit          3D

 19 22  0  0  0  0  0  0  0  0999 V2000
   -1.4920   -0.8850  -16.9240 C   0  0  0  0  0  0  0  0  0  0  0  0
   -3.8350   -1.8250  -16.9690 C   0  0  0  0  0  0  0  0  0  0  0  0
   -2.6780   -1.1410  -17.6480 C   0  0  0  0  0  0  0  0  0  0  0  0
   -8.3470   -3.0290  -16.3270 C   0  0  0  0  0  0  0  0  0  0  0  0
   -5.0450   -1.6710  -17.8650 C   0  0  0  0  0  0  0  0  0  0  0  0
   -6.2060   -3.1130  -15.5780 N   0  0  0  0  0  0  0  0  0  0  0  0
   -6.8590   -0.9470  -19.8440 C   0  0  0  0  0  0  0  0  0  0  0  0
   -4.6730   -1.0120  -19.0850 C   0  0  0  0  0  0  0  0  0  0  0  0
   -9.6230   -2.8520  -17.1620 C   0  0  0  0  0  0  0  0  0  0  0  0
   -2.8970   -0.7100  -19.2230 S   0  0  0  0  0  0  0  0  0  0  0  0
   -6.9370   -3.9090  -14.7700 N   0  0  0  0  0  0  0  0  0  0  0  0
   -3.5920   -2.4240  -15.7270 C   0  0  0  0  0  0  0  0  0  0  0  0
   -5.4980   -0.6840  -20.1540 C   0  0  0  0  0  0  0  0  0  0  0  0
   -6.4360   -1.9440  -17.7390 C   0  0  0  0  0  0  0  0  0  0  0  0
   -1.2850   -1.4990  -15.6380 C   0  0  0  0  0  0  0  0  0  0  0  0
   -6.9760   -2.6490  -16.5330 C   0  0  0  0  0  0  0  0  0  0  0  0
   -8.2940   -3.8650  -15.2110 N   0  0  0  0  0  0  0  0  0  0  0  0
   -7.3100   -1.5520  -18.6660 N   0  0  0  0  0  0  0  0  0  0  0  0
   -2.3040   -2.3510  -15.0490 C   0  0  0  0  0  0  0  0  0  0  0  0
  1 15  4  0
  2 12  4  0
  3  2  4  0
  3  1  4  0
  4 17  4  0
  5 14  4  0
  5  2  4  0
  6 11  4  0
  7 18  4  0
  8  5  4  0
  9  4  1  0
 10  8  4  0
 10  3  4  0
 12 19  4  0
 13  7  4  0
 13  8  4  0
 14 16  1  0
 15 19  4  0
 16  4  4  0
 16  6  4  0
 17 11  4  0
 18 14  4  0
M  END
$$$$

     RDKit          3D

 19 22  0  0  0  0  0  0  0  0999 V2000
   -1.4250   -1.2550  -16.9200 C   0  0  0  0  0  0  0  0  0  0  0  0
   -3.7090   -1.9500  -17.1350 C   0  0  0  0  0  0  0  0  0  0  0  0
   -2.6040   -1.4330  -17.6320 C   0  0  0  0  0  0  0  0  0  0  0  0
   -8.2610   -2.6700  -16.4840 C   0  0  0  0  0  0  0  0  0  0  0  0
   -4.8840   -1.7080  -17.9480 C   0  0  0  0  0  0  0  0  0  0  0  0
   -6.2990   -2.7840  -15.4990 N   0  0  0  0  0  0  0  0  0  0  0  0
   -6.5730   -0.9350  -19.9900 C   0  0  0  0  0  0  0  0  0  0  0  0
   -4.4780   -1.1000  -19.1540 C   0  0  0  0  0  0  0  0  0  0  0  0
   -9.3350   -2.6310  -17.4710 C   0  0  0  0  0  0  0  0  0  0  0  0
   -2.7810   -0.8600  -19.1610 S   0  0  0  0  0  0  0  0  0  0  0  0
   -7.2230   -3.1770  -14.6200 N   0  0  0  0  0  0  0  0  0  0  0  0
   -3.5970   -2.6960  -15.9130 C   0  0  0  0  0  0  0  0  0  0  0  0
   -5.2790   -0.7210  -20.1660 N   0  0  0  0  0  0  0  0  0  0  0  0
   -6.2360   -1.8470  -17.8000 C   0  0  0  0  0  0  0  0  0  0  0  0
   -1.3150   -1.9190  -15.6690 C   0  0  0  0  0  0  0  0  0  0  0  0
   -6.9590   -2.4040  -16.6730 C   0  0  0  0  0  0  0  0  0  0  0  0
   -8.4390   -3.0650  -15.2220 N   0  0  0  0  0  0  0  0  0  0  0  0
   -7.0520   -1.4610  -18.8650 N   0  0  0  0  0  0  0  0  0  0  0  0
   -2.3720   -2.6510  -15.2230 C   0  0  0  0  0  0  0  0  0  0  0  0
  1 15  4  0
  2 12  4  0
  3  2  4  0
  3  1  4  0
  4 17  4  0
  5 14  4  0
  5  2  4  0
  6 11  4  0
  7 18  4  0
  8  5  4  0
  9  4  1  0
 10  8  4  0
 10  3  4  0
 12 19  4  0
 13  7  4  0
 13  8  4  0
 14 16  1  0
 15 19  4  0
 16  4  4  0
 16  6  4  0
 17 11  4  0
 18 14  4  0
M  END
$$$$

     RDKit          3D

 19 22  0  0  0  0  0  0  0  0999 V2000
   -1.2050   -1.0000  -17.3160 C   0  0  0  0  0  0  0  0  0  0  0  0
   -3.4730   -1.8360  -16.9730 C   0  0  0  0  0  0  0  0  0  0  0  0
   -2.4980   -1.2190  -17.6650 C   0  0  0  0  0  0  0  0  0  0  0  0
   -8.0920   -2.8720  -16.4330 C   0  0  0  0  0  0  0  0  0  0  0  0
   -4.7340   -1.6960  -17.7590 C   0  0  0  0  0  0  0  0  0  0  0  0
   -6.0660   -3.1660  -15.6030 N   0  0  0  0  0  0  0  0  0  0  0  0
   -6.5080   -0.8390  -19.7590 C   0  0  0  0  0  0  0  0  0  0  0  0
   -4.3220   -0.8950  -18.9440 C   0  0  0  0  0  0  0  0  0  0  0  0
   -9.2690   -2.4960  -17.1950 C   0  0  0  0  0  0  0  0  0  0  0  0
   -2.9810   -0.6370  -18.8540 N   0  0  0  0  0  0  0  0  0  0  0  0
   -6.9680   -3.8130  -14.7480 N   0  0  0  0  0  0  0  0  0  0  0  0
   -3.1570   -2.6170  -15.8540 C   0  0  0  0  0  0  0  0  0  0  0  0
   -5.2050   -0.5830  -19.8270 N   0  0  0  0  0  0  0  0  0  0  0  0
   -6.1490   -1.9560  -17.6920 C   0  0  0  0  0  0  0  0  0  0  0  0
   -0.8470   -1.8550  -16.1410 C   0  0  0  0  0  0  0  0  0  0  0  0
   -6.7090   -2.6240  -16.5680 C   0  0  0  0  0  0  0  0  0  0  0  0
   -8.1950   -3.6580  -15.3010 N   0  0  0  0  0  0  0  0  0  0  0  0
   -6.9940   -1.5780  -18.7710 C   0  0  0  0  0  0  0  0  0  0  0  0
   -1.8190   -2.6600  -15.4620 C   0  0  0  0  0  0  0  0  0  0  0  0
  1 15  4  0
  2 12  4  0
  3  1  4  0
  3  2  4  0
  4 17  4  0
  5 14  4  0
  5  2  4  0
  6 11  4  0
  7 18  4  0
  8 10  4  0
  8  5  1  0
  9  4  1  0
 10  3  4  0
 12 19  4  0
 13  7  4  0
 13  8  4  0
 14 16  1  0
 15 19  4  0
 16  4  4  0
 16  6  4  0
 17 11  4  0
 18 14  4  0
M  END
$$$$

     RDKit          3D

 19 22  0  0  0  0  0  0  0  0999 V2000
   -1.6590   -1.3670  -17.1040 C   0  0  0  0  0  0  0  0  0  0  0  0
   -3.9690   -1.9790  -17.0430 C   0  0  0  0  0  0  0  0  0  0  0  0
   -2.9350   -1.3930  -17.6340 C   0  0  0  0  0  0  0  0  0  0  0  0
   -8.4810   -3.1660  -16.7250 C   0  0  0  0  0  0  0  0  0  0  0  0
   -5.0920   -1.7850  -17.7910 C   0  0  0  0  0  0  0  0  0  0  0  0
   -6.6440   -3.2300  -15.5390 C   0  0  0  0  0  0  0  0  0  0  0  0
   -6.6880   -0.9430  -19.8560 C   0  0  0  0  0  0  0  0  0  0  0  0
   -4.6370   -1.0690  -18.9110 C   0  0  0  0  0  0  0  0  0  0  0  0
   -9.4910   -3.1450  -17.6390 N   0  0  0  0  0  0  0  0  0  0  0  0
   -3.3480   -0.8420  -18.8190 N   0  0  0  0  0  0  0  0  0  0  0  0
   -7.6300   -3.7220  -14.7570 N   0  0  0  0  0  0  0  0  0  0  0  0
   -3.7410   -2.6390  -15.8530 C   0  0  0  0  0  0  0  0  0  0  0  0
   -5.4040   -0.6370  -19.9080 C   0  0  0  0  0  0  0  0  0  0  0  0
   -6.4690   -2.0540  -17.7450 C   0  0  0  0  0  0  0  0  0  0  0  0
   -1.3790   -2.0680  -15.9300 C   0  0  0  0  0  0  0  0  0  0  0  0
   -7.2250   -2.7380  -16.6990 C   0  0  0  0  0  0  0  0  0  0  0  0
   -8.7440   -3.7290  -15.5330 O   0  0  0  0  0  0  0  0  0  0  0  0
   -7.2480   -1.5200  -18.7470 C   0  0  0  0  0  0  0  0  0  0  0  0
   -2.4950   -2.6900  -15.3040 C   0  0  0  0  0  0  0  0  0  0  0  0
  1 15  1  0
  2 12  1  0
  3  1  2  0
  3  2  1  0
  4 16  2  0
  4 17  1  0
  5 14  4  0
  5  2  2  0
  6 11  1  0
  7 18  4  0
  8 10  2  0
  8  5  4  0
  9  4  1  0
 10  3  1  0
 12 19  2  0
 13  7  4  0
 13  8  4  0
 14 16  1  0
 15 19  1  0
 16  6  1  0
 17 11  1  0
 18 14  4  0
M  END
$$$$

     RDKit          3D

 19 22  0  0  0  0  0  0  0  0999 V2000
   -1.2610   -0.6680  -16.8300 C   0  0  0  0  0  0  0  0  0  0  0  0
   -3.4780   -1.5560  -16.9320 C   0  0  0  0  0  0  0  0  0  0  0  0
   -2.4370   -0.8410  -17.4630 C   0  0  0  0  0  0  0  0  0  0  0  0
   -8.0450   -2.8390  -16.3960 C   0  0  0  0  0  0  0  0  0  0  0  0
   -4.6380   -1.4350  -17.7840 C   0  0  0  0  0  0  0  0  0  0  0  0
   -6.0110   -3.0160  -15.5060 N   0  0  0  0  0  0  0  0  0  0  0  0
   -6.3170   -0.7670  -19.9010 N   0  0  0  0  0  0  0  0  0  0  0  0
   -4.1460   -0.6930  -18.9300 C   0  0  0  0  0  0  0  0  0  0  0  0
   -9.0690   -2.5810  -17.2440 N   0  0  0  0  0  0  0  0  0  0  0  0
   -2.8190   -0.3680  -18.6970 N   0  0  0  0  0  0  0  0  0  0  0  0
   -6.8890   -3.5540  -14.7390 N   0  0  0  0  0  0  0  0  0  0  0  0
   -3.2580   -2.3830  -15.7890 C   0  0  0  0  0  0  0  0  0  0  0  0
   -5.0080   -0.4080  -19.9670 C   0  0  0  0  0  0  0  0  0  0  0  0
   -6.0160   -1.7350  -17.7050 C   0  0  0  0  0  0  0  0  0  0  0  0
   -1.0390   -1.4900  -15.7330 C   0  0  0  0  0  0  0  0  0  0  0  0
   -6.6010   -2.4930  -16.5700 C   0  0  0  0  0  0  0  0  0  0  0  0
   -8.1780   -3.4200  -15.3150 N   0  0  0  0  0  0  0  0  0  0  0  0
   -6.7600   -1.4310  -18.7710 C   0  0  0  0  0  0  0  0  0  0  0  0
   -2.0220   -2.3080  -15.1920 C   0  0  0  0  0  0  0  0  0  0  0  0
  1 15  1  0
  2 12  1  0
  3  2  1  0
  3  1  2  0
  4 17  4  0
  5 14  4  0
  5  2  2  0
  6 11  4  0
  7 18  4  0
  8 10  2  0
  8  5  4  0
  9  4  1  0
 10  3  1  0
 12 19  2  0
 13  7  4  0
 13  8  4  0
 14 16  1  0
 15 19  1  0
 16  4  4  0
 16  6  4  0
 17 11  4  0
 18 14  4  0
M  END
$$$$

     RDKit          3D

 19 22  0  0  0  0  0  0  0  0999 V2000
   -1.5160   -0.7720  -16.8450 C   0  0  0  0  0  0  0  0  0  0  0  0
   -3.7640   -1.7690  -16.9130 C   0  0  0  0  0  0  0  0  0  0  0  0
   -2.7380   -1.0090  -17.5050 C   0  0  0  0  0  0  0  0  0  0  0  0
   -8.2600   -2.9680  -16.5200 C   0  0  0  0  0  0  0  0  0  0  0  0
   -4.8550   -1.5510  -17.7770 C   0  0  0  0  0  0  0  0  0  0  0  0
   -6.2860   -2.8670  -15.4600 N   0  0  0  0  0  0  0  0  0  0  0  0
   -6.6090   -0.8760  -19.9130 C   0  0  0  0  0  0  0  0  0  0  0  0
   -4.3980   -0.8410  -18.9200 C   0  0  0  0  0  0  0  0  0  0  0  0
   -9.4070   -3.0410  -17.4830 C   0  0  0  0  0  0  0  0  0  0  0  0
   -3.0320   -0.5890  -18.7270 N   0  0  0  0  0  0  0  0  0  0  0  0
   -7.3160   -3.3590  -14.6380 O   0  0  0  0  0  0  0  0  0  0  0  0
   -3.4810   -2.4180  -15.7160 C   0  0  0  0  0  0  0  0  0  0  0  0
   -5.2420   -0.4990  -19.9980 C   0  0  0  0  0  0  0  0  0  0  0  0
   -6.2280   -1.9090  -17.7200 C   0  0  0  0  0  0  0  0  0  0  0  0
   -1.3190   -1.4640  -15.6320 C   0  0  0  0  0  0  0  0  0  0  0  0
   -6.8950   -2.5690  -16.6020 C   0  0  0  0  0  0  0  0  0  0  0  0
   -8.5380   -3.4200  -15.3140 N   0  0  0  0  0  0  0  0  0  0  0  0
   -6.9930   -1.5890  -18.8480 C   0  0  0  0  0  0  0  0  0  0  0  0
   -2.2810   -2.2870  -15.0860 C   0  0  0  0  0  0  0  0  0  0  0  0
  1 15  4  0
  2 12  4  0
  3  2  4  0
  3  1  4  0
  4 17  4  0
  5 14  4  0
  5  2  4  0
  6 11  4  0
  7 18  4  0
  8 10  4  0
  8  5  4  0
  9  4  1  0
 10  3  4  0
 12 19  4  0
 13  7  4  0
 13  8  4  0
 14 16  1  0
 15 19  4  0
 16  4  4  0
 16  6  4  0
 17 11  4  0
 18 14  4  0
M  END
$$$$

     RDKit          3D

 19 22  0  0  0  0  0  0  0  0999 V2000
   -1.0310   -1.3240  -17.3490 C   0  0  0  0  0  0  0  0  0  0  0  0
   -3.4550   -1.8420  -16.9960 C   0  0  0  0  0  0  0  0  0  0  0  0
   -2.3680   -1.3930  -17.8310 C   0  0  0  0  0  0  0  0  0  0  0  0
   -8.0990   -2.8640  -16.5450 C   0  0  0  0  0  0  0  0  0  0  0  0
   -4.7380   -1.6550  -17.8290 C   0  0  0  0  0  0  0  0  0  0  0  0
   -6.1400   -3.0830  -15.5980 N   0  0  0  0  0  0  0  0  0  0  0  0
   -6.4750   -0.7960  -19.9640 C   0  0  0  0  0  0  0  0  0  0  0  0
   -4.1920   -0.9620  -19.0230 C   0  0  0  0  0  0  0  0  0  0  0  0
   -9.3170   -2.5780  -17.3890 C   0  0  0  0  0  0  0  0  0  0  0  0
   -2.8210   -0.8770  -18.9460 N   0  0  0  0  0  0  0  0  0  0  0  0
   -7.0900   -3.5780  -14.8220 N   0  0  0  0  0  0  0  0  0  0  0  0
   -3.1230   -2.3880  -15.7510 C   0  0  0  0  0  0  0  0  0  0  0  0
   -5.0700   -0.6010  -20.0250 C   0  0  0  0  0  0  0  0  0  0  0  0
   -6.1300   -1.8740  -17.7620 C   0  0  0  0  0  0  0  0  0  0  0  0
   -0.7190   -2.1040  -16.2970 C   0  0  0  0  0  0  0  0  0  0  0  0
   -6.7210   -2.5850  -16.7030 C   0  0  0  0  0  0  0  0  0  0  0  0
   -8.2570   -3.5020  -15.3840 N   0  0  0  0  0  0  0  0  0  0  0  0
   -7.0070   -1.3860  -18.7490 C   0  0  0  0  0  0  0  0  0  0  0  0
   -1.7600   -2.4970  -15.3980 C   0  0  0  0  0  0  0  0  0  0  0  0
  1 15  1  0
  2 12  1  0
  3  1  2  0
  3  2  1  0
  4 17  4  0
  5 14  4  0
  5  2  2  0
  6 11  4  0
  7 18  4  0
  8 10  2  0
  8  5  4  0
  9  4  1  0
 10  3  1  0
 12 19  2  0
 13  7  4  0
 13  8  4  0
 14 16  1  0
 15 19  1  0
 16  4  4  0
 16  6  4  0
 17 11  4  0
 18 14  4  0
M  END
$$$$

     RDKit          3D

 19 22  0  0  0  0  0  0  0  0999 V2000
   -1.1770   -0.9180  -16.9490 C   0  0  0  0  0  0  0  0  0  0  0  0
   -3.5380   -1.7590  -16.9910 C   0  0  0  0  0  0  0  0  0  0  0  0
   -2.4560   -1.0720  -17.6110 C   0  0  0  0  0  0  0  0  0  0  0  0
   -8.1370   -3.0530  -16.4570 C   0  0  0  0  0  0  0  0  0  0  0  0
   -4.7540   -1.5740  -17.8890 C   0  0  0  0  0  0  0  0  0  0  0  0
   -6.1370   -3.0770  -15.5230 N   0  0  0  0  0  0  0  0  0  0  0  0
   -6.5780   -0.8560  -20.1260 C   0  0  0  0  0  0  0  0  0  0  0  0
   -4.2380   -0.8850  -19.0440 C   0  0  0  0  0  0  0  0  0  0  0  0
   -9.2090   -2.7930  -17.2810 C   0  0  0  0  0  0  0  0  0  0  0  0
   -2.8970   -0.5480  -18.8140 N   0  0  0  0  0  0  0  0  0  0  0  0
   -6.9420   -3.7430  -14.6690 N   0  0  0  0  0  0  0  0  0  0  0  0
   -3.2900   -2.5850  -15.8870 C   0  0  0  0  0  0  0  0  0  0  0  0
   -5.1800   -0.5090  -20.1980 C   0  0  0  0  0  0  0  0  0  0  0  0
   -6.2430   -1.9620  -17.7660 C   0  0  0  0  0  0  0  0  0  0  0  0
   -0.9470   -1.7180  -15.8150 C   0  0  0  0  0  0  0  0  0  0  0  0
   -6.7730   -2.6200  -16.6560 C   0  0  0  0  0  0  0  0  0  0  0  0
   -8.1540   -3.6640  -15.2090 N   0  0  0  0  0  0  0  0  0  0  0  0
   -7.0470   -1.5570  -18.9450 C   0  0  0  0  0  0  0  0  0  0  0  0
   -2.0580   -2.5300  -15.3030 C   0  0  0  0  0  0  0  0  0  0  0  0
  1 15  1  0
  2 12  1  0
  3  2  1  0
  3  1  2  0
  4 17  4  0
  5 14  4  0
  5  2  2  0
  6 11  4  0
  7 18  4  0
  8 10  2  0
  8  5  4  0
  9  4  1  0
 10  3  1  0
 12 19  2  0
 13  7  4  0
 13  8  4  0
 14 16  1  0
 15 19  1  0
 16  4  4  0
 16  6  4  0
 17 11  4  0
 18 14  4  0
M  END
$$$$

     RDKit          3D

 19 22  0  0  0  0  0  0  0  0999 V2000
   -1.2320   -1.0860  -17.0070 C   0  0  0  0  0  0  0  0  0  0  0  0
   -3.5920   -1.6490  -16.9440 C   0  0  0  0  0  0  0  0  0  0  0  0
   -2.4380   -1.0850  -17.6360 C   0  0  0  0  0  0  0  0  0  0  0  0
   -8.1870   -2.9980  -16.3470 C   0  0  0  0  0  0  0  0  0  0  0  0
   -4.8750   -1.5610  -17.7660 C   0  0  0  0  0  0  0  0  0  0  0  0
   -6.1380   -3.0390  -15.4260 N   0  0  0  0  0  0  0  0  0  0  0  0
   -6.7020   -0.8870  -19.8590 C   0  0  0  0  0  0  0  0  0  0  0  0
   -4.4650   -0.8490  -19.0520 C   0  0  0  0  0  0  0  0  0  0  0  0
   -9.3910   -2.8600  -17.2250 C   0  0  0  0  0  0  0  0  0  0  0  0
   -2.9210   -0.6010  -19.0130 C   0  0  0  0  0  0  0  0  0  0  0  0
   -6.9790   -3.7380  -14.6880 N   0  0  0  0  0  0  0  0  0  0  0  0
   -3.3370   -2.2880  -15.7500 C   0  0  0  0  0  0  0  0  0  0  0  0
   -5.4150   -0.6530  -20.0160 N   0  0  0  0  0  0  0  0  0  0  0  0
   -6.2570   -1.9300  -17.6480 C   0  0  0  0  0  0  0  0  0  0  0  0
   -1.0540   -1.6760  -15.7770 N   0  0  0  0  0  0  0  0  0  0  0  0
   -6.8350   -2.5760  -16.4750 C   0  0  0  0  0  0  0  0  0  0  0  0
   -8.2260   -3.7420  -15.1900 N   0  0  0  0  0  0  0  0  0  0  0  0
   -7.1670   -1.5370  -18.7040 C   0  0  0  0  0  0  0  0  0  0  0  0
   -2.0390   -2.3020  -15.1630 C   0  0  0  0  0  0  0  0  0  0  0  0
  1 15  4  0
  2 12  4  0
  3  1  4  0
  3  2  1  0
  4 17  4  0
  5 14  4  0
  5  2  4  0
  6 11  4  0
  7 18  4  0
  8 10  4  0
  8  5  4  0
  9  4  1  0
 10  3  4  0
 12 19  4  0
 13  7  4  0
 13  8  4  0
 14 16  1  0
 15 19  4  0
 16  4  4  0
 16  6  4  0
 17 11  4  0
 18 14  4  0
M  END
$$$$

     RDKit          3D

 19 22  0  0  0  0  0  0  0  0999 V2000
   -1.4520   -1.3440  -16.9380 C   0  0  0  0  0  0  0  0  0  0  0  0
   -3.7880   -1.9740  -17.0170 C   0  0  0  0  0  0  0  0  0  0  0  0
   -2.6780   -1.4530  -17.5620 C   0  0  0  0  0  0  0  0  0  0  0  0
   -8.3530   -2.8240  -16.5340 C   0  0  0  0  0  0  0  0  0  0  0  0
   -4.9440   -1.6680  -17.9150 C   0  0  0  0  0  0  0  0  0  0  0  0
   -6.5140   -2.8080  -15.6460 N   0  0  0  0  0  0  0  0  0  0  0  0
   -6.5460   -0.9540  -20.0010 C   0  0  0  0  0  0  0  0  0  0  0  0
   -4.3570   -1.0830  -19.0270 C   0  0  0  0  0  0  0  0  0  0  0  0
   -9.6110   -2.5760  -17.3460 C   0  0  0  0  0  0  0  0  0  0  0  0
   -3.0760   -0.9550  -18.7660 N   0  0  0  0  0  0  0  0  0  0  0  0
   -7.2490   -3.3470  -14.8090 N   0  0  0  0  0  0  0  0  0  0  0  0
   -3.5440   -2.7340  -15.8700 C   0  0  0  0  0  0  0  0  0  0  0  0
   -5.1620   -0.6840  -19.9880 C   0  0  0  0  0  0  0  0  0  0  0  0
   -6.2800   -1.7990  -17.8950 C   0  0  0  0  0  0  0  0  0  0  0  0
   -1.2230   -2.0490  -15.7870 C   0  0  0  0  0  0  0  0  0  0  0  0
   -7.0130   -2.3770  -16.7770 C   0  0  0  0  0  0  0  0  0  0  0  0
   -8.4370   -3.3070  -15.3870 N   0  0  0  0  0  0  0  0  0  0  0  0
   -7.1290   -1.4310  -18.9440 N   0  0  0  0  0  0  0  0  0  0  0  0
   -2.2850   -2.7700  -15.2790 C   0  0  0  0  0  0  0  0  0  0  0  0
  1 15  1  0
  2 12  1  0
  3  2  1  0
  3  1  2  0
  4 17  4  0
  5 14  4  0
  5  2  2  0
  6 11  4  0
  7 13  4  0
  7 18  4  0
  8 10  2  0
  8  5  4  0
  9  4  1  0
 10  3  1  0
 12 19  2  0
 13  8  4  0
 14 16  1  0
 15 19  1  0
 16  4  4  0
 16  6  4  0
 17 11  4  0
 18 14  4  0
M  END
$$$$

     RDKit          3D

 19 22  0  0  0  0  0  0  0  0999 V2000
   -1.1880   -1.5940  -17.3590 C   0  0  0  0  0  0  0  0  0  0  0  0
   -3.6200   -2.0020  -17.1460 C   0  0  0  0  0  0  0  0  0  0  0  0
   -2.5170   -1.4780  -17.8000 C   0  0  0  0  0  0  0  0  0  0  0  0
   -8.0930   -2.9610  -16.4180 C   0  0  0  0  0  0  0  0  0  0  0  0
   -4.7990   -1.7480  -17.9280 C   0  0  0  0  0  0  0  0  0  0  0  0
   -6.1270   -2.9690  -15.4720 N   0  0  0  0  0  0  0  0  0  0  0  0
   -6.5680   -0.8610  -19.7990 C   0  0  0  0  0  0  0  0  0  0  0  0
   -4.3370   -1.0560  -19.0530 C   0  0  0  0  0  0  0  0  0  0  0  0
   -9.2420   -2.6940  -17.2900 C   0  0  0  0  0  0  0  0  0  0  0  0
   -3.0200   -0.9200  -18.9420 N   0  0  0  0  0  0  0  0  0  0  0  0
   -6.9330   -3.7240  -14.6600 N   0  0  0  0  0  0  0  0  0  0  0  0
   -3.3720   -2.7840  -15.9370 C   0  0  0  0  0  0  0  0  0  0  0  0
   -5.2500   -0.6030  -19.9420 N   0  0  0  0  0  0  0  0  0  0  0  0
   -6.2260   -1.9760  -17.7940 C   0  0  0  0  0  0  0  0  0  0  0  0
   -1.0050   -2.1500  -16.1080 C   0  0  0  0  0  0  0  0  0  0  0  0
   -6.8070   -2.5860  -16.6140 C   0  0  0  0  0  0  0  0  0  0  0  0
   -8.1570   -3.6800  -15.1680 N   0  0  0  0  0  0  0  0  0  0  0  0
   -7.0130   -1.5350  -18.7940 N   0  0  0  0  0  0  0  0  0  0  0  0
   -2.0750   -2.7330  -15.4270 C   0  0  0  0  0  0  0  0  0  0  0  0
  1 15  4  0
  2 12  4  0
  3  1  4  0
  3  2  4  0
  4 17  4  0
  5 14  4  0
  5  2  4  0
  6 11  4  0
  7 18  4  0
  8 10  4  0
  8  5  1  0
  9  4  1  0
 10  3  4  0
 12 19  4  0
 13  7  4  0
 13  8  4  0
 14 16  1  0
 15 19  4  0
 16  4  4  0
 16  6  4  0
 17 11  4  0
 18 14  4  0
M  END
$$$$

     RDKit          3D

 19 22  0  0  0  0  0  0  0  0999 V2000
   -1.4830   -1.4610  -16.9110 C   0  0  0  0  0  0  0  0  0  0  0  0
   -3.9700   -2.0210  -16.8730 C   0  0  0  0  0  0  0  0  0  0  0  0
   -2.7720   -1.5110  -17.6190 C   0  0  0  0  0  0  0  0  0  0  0  0
   -8.4920   -3.1970  -16.3780 C   0  0  0  0  0  0  0  0  0  0  0  0
   -5.0390   -1.8110  -17.7490 C   0  0  0  0  0  0  0  0  0  0  0  0
   -6.4080   -3.1260  -15.2930 C   0  0  0  0  0  0  0  0  0  0  0  0
   -6.7620   -0.9580  -19.7480 C   0  0  0  0  0  0  0  0  0  0  0  0
   -4.6180   -0.9790  -18.9120 C   0  0  0  0  0  0  0  0  0  0  0  0
   -9.4180   -3.2390  -17.3950 N   0  0  0  0  0  0  0  0  0  0  0  0
   -3.2290   -0.7880  -18.8170 N   0  0  0  0  0  0  0  0  0  0  0  0
   -7.4920   -3.6030  -14.4790 N   0  0  0  0  0  0  0  0  0  0  0  0
   -3.7190   -2.5210  -15.5290 C   0  0  0  0  0  0  0  0  0  0  0  0
   -5.5110   -0.5490  -19.8900 N   0  0  0  0  0  0  0  0  0  0  0  0
   -6.4230   -2.1130  -17.6320 C   0  0  0  0  0  0  0  0  0  0  0  0
   -1.3980   -2.0700  -15.5750 C   0  0  0  0  0  0  0  0  0  0  0  0
   -7.0280   -2.6560  -16.5360 C   0  0  0  0  0  0  0  0  0  0  0  0
   -8.7160   -3.5860  -15.1190 N   0  0  0  0  0  0  0  0  0  0  0  0
   -7.3060   -1.7840  -18.7460 C   0  0  0  0  0  0  0  0  0  0  0  0
   -2.4630   -2.5480  -14.9440 N   0  0  0  0  0  0  0  0  0  0  0  0
  1 15  4  0
  2 12  4  0
  3  1  4  0
  3  2  4  0
  4 17  1  0
  5 14  2  0
  5  2  1  0
  6 11  1  0
  7 18  1  0
  8 10  2  0
  8  5  1  0
  9  4  1  0
 10  3  1  0
 12 19  4  0
 13  7  2  0
 13  8  1  0
 14 16  1  0
 15 19  4  0
 16  4  2  0
 16  6  1  0
 17 11  1  0
 18 14  1  0
M  END
$$$$

     RDKit          3D

 19 22  0  0  0  0  0  0  0  0999 V2000
   -1.2540   -0.6540  -17.0270 C   0  0  0  0  0  0  0  0  0  0  0  0
   -3.4600   -1.6660  -16.9750 C   0  0  0  0  0  0  0  0  0  0  0  0
   -2.4790   -0.9260  -17.6060 C   0  0  0  0  0  0  0  0  0  0  0  0
   -7.9780   -2.7660  -16.3390 C   0  0  0  0  0  0  0  0  0  0  0  0
   -4.6120   -1.5430  -17.8270 C   0  0  0  0  0  0  0  0  0  0  0  0
   -5.9690   -3.0290  -15.5150 N   0  0  0  0  0  0  0  0  0  0  0  0
   -6.2440   -1.0060  -19.8900 C   0  0  0  0  0  0  0  0  0  0  0  0
   -4.1790   -0.8070  -18.9790 C   0  0  0  0  0  0  0  0  0  0  0  0
   -9.0600   -2.3800  -17.1690 C   0  0  0  0  0  0  0  0  0  0  0  0
   -2.9430   -0.5140  -18.7770 N   0  0  0  0  0  0  0  0  0  0  0  0
   -6.8640   -3.5920  -14.7410 O   0  0  0  0  0  0  0  0  0  0  0  0
   -3.1920   -2.3230  -15.7820 C   0  0  0  0  0  0  0  0  0  0  0  0
   -5.0130   -0.5850  -19.9860 N   0  0  0  0  0  0  0  0  0  0  0  0
   -6.0090   -1.8640  -17.7350 C   0  0  0  0  0  0  0  0  0  0  0  0
   -0.9680   -1.3010  -15.8290 C   0  0  0  0  0  0  0  0  0  0  0  0
   -6.6150   -2.5130  -16.6120 C   0  0  0  0  0  0  0  0  0  0  0  0
   -8.0610   -3.4050  -15.2160 N   0  0  0  0  0  0  0  0  0  0  0  0
   -6.7000   -1.6160  -18.8040 N   0  0  0  0  0  0  0  0  0  0  0  0
   -1.9260   -2.1600  -15.2650 C   0  0  0  0  0  0  0  0  0  0  0  0
  1 15  4  0
  2 12  4  0
  3  1  4  0
  3  2  4  0
  4 17  4  0
  5  8  1  0
  5 14  1  0
  5  2  1  0
  6 11  4  0
  7 18  1  0
  8 10  2  0
  9  4  1  0
 10  3  1  0
 12 19  4  0
 13  7  2  0
 13  8  1  0
 14 16  1  0
 15 19  4  0
 16  4  4  0
 16  6  4  0
 17 11  4  0
 18 14  2  0
M  END
$$$$

     RDKit          3D

 19 22  0  0  0  0  0  0  0  0999 V2000
   -1.4840   -0.9100  -16.8180 C   0  0  0  0  0  0  0  0  0  0  0  0
   -3.7920   -1.7580  -16.9630 C   0  0  0  0  0  0  0  0  0  0  0  0
   -2.6630   -1.1400  -17.5180 C   0  0  0  0  0  0  0  0  0  0  0  0
   -8.2980   -2.8980  -16.4760 N   0  0  0  0  0  0  0  0  0  0  0  0
   -4.9170   -1.5570  -17.8790 C   0  0  0  0  0  0  0  0  0  0  0  0
   -6.4620   -2.9360  -15.5170 N   0  0  0  0  0  0  0  0  0  0  0  0
   -6.5740   -0.8960  -19.9740 C   0  0  0  0  0  0  0  0  0  0  0  0
   -4.3690   -0.9160  -19.0040 C   0  0  0  0  0  0  0  0  0  0  0  0
   -9.4900   -2.8230  -17.3610 C   0  0  0  0  0  0  0  0  0  0  0  0
   -2.9950   -0.7290  -18.7790 N   0  0  0  0  0  0  0  0  0  0  0  0
   -7.3660   -3.4580  -14.7870 N   0  0  0  0  0  0  0  0  0  0  0  0
   -3.6270   -2.4110  -15.7510 C   0  0  0  0  0  0  0  0  0  0  0  0
   -5.2240   -0.6490  -20.0590 C   0  0  0  0  0  0  0  0  0  0  0  0
   -6.3110   -1.9100  -17.7570 C   0  0  0  0  0  0  0  0  0  0  0  0
   -1.3420   -1.6370  -15.6100 C   0  0  0  0  0  0  0  0  0  0  0  0
   -6.9810   -2.5170  -16.6910 C   0  0  0  0  0  0  0  0  0  0  0  0
   -8.3970   -3.4780  -15.4160 N   0  0  0  0  0  0  0  0  0  0  0  0
   -7.0800   -1.5030  -18.8730 C   0  0  0  0  0  0  0  0  0  0  0  0
   -2.3620   -2.3840  -15.1050 C   0  0  0  0  0  0  0  0  0  0  0  0
  1 15  1  0
  2 12  1  0
  3  2  1  0
  3  1  2  0
  4 17  4  0
  5 14  4  0
  5  2  2  0
  6 11  4  0
  7 18  4  0
  8 10  2  0
  8  5  4  0
  9  4  1  0
 10  3  1  0
 12 19  2  0
 13  7  4  0
 13  8  4  0
 14 16  1  0
 15 19  1  0
 16  4  4  0
 16  6  4  0
 17 11  4  0
 18 14  4  0
M  END
$$$$

     RDKit          3D

 19 22  0  0  0  0  0  0  0  0999 V2000
   -1.0120   -1.4710  -17.2170 C   0  0  0  0  0  0  0  0  0  0  0  0
   -3.3950   -1.9910  -17.0610 C   0  0  0  0  0  0  0  0  0  0  0  0
   -2.3520   -1.4200  -17.7440 C   0  0  0  0  0  0  0  0  0  0  0  0
   -8.1060   -2.7540  -16.6260 C   0  0  0  0  0  0  0  0  0  0  0  0
   -4.6550   -1.7350  -17.8450 C   0  0  0  0  0  0  0  0  0  0  0  0
   -6.1460   -2.9430  -15.5440 C   0  0  0  0  0  0  0  0  0  0  0  0
   -6.4600   -0.8370  -19.8130 N   0  0  0  0  0  0  0  0  0  0  0  0
   -4.3500   -1.0570  -19.1170 C   0  0  0  0  0  0  0  0  0  0  0  0
   -9.2340   -2.5320  -17.5230 C   0  0  0  0  0  0  0  0  0  0  0  0
   -2.9470   -0.8960  -19.0160 N   0  0  0  0  0  0  0  0  0  0  0  0
   -7.1320   -3.5010  -14.7680 N   0  0  0  0  0  0  0  0  0  0  0  0
   -3.1380   -2.6260  -15.8320 C   0  0  0  0  0  0  0  0  0  0  0  0
   -5.2030   -0.6360  -20.0380 N   0  0  0  0  0  0  0  0  0  0  0  0
   -6.0830   -1.8660  -17.7250 C   0  0  0  0  0  0  0  0  0  0  0  0
   -0.8110   -2.0860  -16.0480 C   0  0  0  0  0  0  0  0  0  0  0  0
   -6.7160   -2.5110  -16.6780 C   0  0  0  0  0  0  0  0  0  0  0  0
   -8.3250   -3.4190  -15.4070 O   0  0  0  0  0  0  0  0  0  0  0  0
   -6.8690   -1.3700  -18.6950 N   0  0  0  0  0  0  0  0  0  0  0  0
   -1.8500   -2.6450  -15.3380 C   0  0  0  0  0  0  0  0  0  0  0  0
  1 15  4  0
  2 12  4  0
  3  1  4  0
  3  2  4  0
  4 17  4  0
  5  8  1  0
  5 14  1  0
  5  2  1  0
  6 11  4  0
  7 18  1  0
  8 10  2  0
  9  4  1  0
 10  3  1  0
 12 19  4  0
 13  7  2  0
 13  8  1  0
 14 16  1  0
 15 19  4  0
 16  4  4  0
 16  6  4  0
 17 11  4  0
 18 14  2  0
M  END
$$$$

     RDKit          3D

 19 22  0  0  0  0  0  0  0  0999 V2000
   -1.1640   -0.7380  -17.0630 C   0  0  0  0  0  0  0  0  0  0  0  0
   -3.5220   -1.7000  -17.0110 C   0  0  0  0  0  0  0  0  0  0  0  0
   -2.4490   -0.9960  -17.7140 C   0  0  0  0  0  0  0  0  0  0  0  0
   -8.0520   -3.0810  -16.5220 C   0  0  0  0  0  0  0  0  0  0  0  0
   -4.6410   -1.5840  -17.7230 C   0  0  0  0  0  0  0  0  0  0  0  0
   -6.1770   -3.0520  -15.5210 N   0  0  0  0  0  0  0  0  0  0  0  0
   -6.3620   -0.7970  -19.8520 C   0  0  0  0  0  0  0  0  0  0  0  0
   -4.3070   -0.9220  -18.8930 C   0  0  0  0  0  0  0  0  0  0  0  0
   -9.3040   -2.8750  -17.3160 C   0  0  0  0  0  0  0  0  0  0  0  0
   -2.9630   -0.5910  -18.8070 N   0  0  0  0  0  0  0  0  0  0  0  0
   -7.0060   -3.8140  -14.7710 N   0  0  0  0  0  0  0  0  0  0  0  0
   -3.0750   -2.3010  -15.8100 C   0  0  0  0  0  0  0  0  0  0  0  0
   -4.9970   -0.5410  -19.8490 N   0  0  0  0  0  0  0  0  0  0  0  0
   -6.0470   -1.9020  -17.7000 C   0  0  0  0  0  0  0  0  0  0  0  0
   -0.8800   -1.3250  -15.9090 N   0  0  0  0  0  0  0  0  0  0  0  0
   -6.7230   -2.5830  -16.6420 C   0  0  0  0  0  0  0  0  0  0  0  0
   -8.1380   -3.8040  -15.3920 N   0  0  0  0  0  0  0  0  0  0  0  0
   -6.7960   -1.4650  -18.7780 C   0  0  0  0  0  0  0  0  0  0  0  0
   -1.7910   -2.0070  -15.3610 C   0  0  0  0  0  0  0  0  0  0  0  0
  1 15  4  0
  2 12  4  0
  3  1  4  0
  3  2  4  0
  4 17  4  0
  5 14  2  0
  5  2  1  0
  6 11  4  0
  7 13  2  0
  7 18  1  0
  8 10  2  0
  8  5  1  0
  9  4  1  0
 10  3  1  0
 12 19  4  0
 13  8  1  0
 14 16  1  0
 15 19  4  0
 16  4  4  0
 16  6  4  0
 17 11  4  0
 18 14  1  0
M  END
$$$$

     RDKit          3D

 19 22  0  0  0  0  0  0  0  0999 V2000
   -1.5290   -0.6780  -17.1750 C   0  0  0  0  0  0  0  0  0  0  0  0
   -3.8100   -1.6940  -17.1190 C   0  0  0  0  0  0  0  0  0  0  0  0
   -2.7620   -1.0320  -17.7600 C   0  0  0  0  0  0  0  0  0  0  0  0
   -8.3930   -3.0220  -16.2830 C   0  0  0  0  0  0  0  0  0  0  0  0
   -5.0360   -1.5620  -17.8810 C   0  0  0  0  0  0  0  0  0  0  0  0
   -6.3730   -2.9790  -15.4450 N   0  0  0  0  0  0  0  0  0  0  0  0
   -6.9440   -1.0060  -19.8420 N   0  0  0  0  0  0  0  0  0  0  0  0
   -4.6670   -0.9260  -19.0810 C   0  0  0  0  0  0  0  0  0  0  0  0
   -9.5940   -2.7770  -17.0400 C   0  0  0  0  0  0  0  0  0  0  0  0
   -3.0080   -0.4660  -19.3930 S   0  0  0  0  0  0  0  0  0  0  0  0
   -7.0600   -3.7480  -14.6620 N   0  0  0  0  0  0  0  0  0  0  0  0
   -3.5480   -2.3550  -15.9100 C   0  0  0  0  0  0  0  0  0  0  0  0
   -5.6490   -0.6170  -20.0910 C   0  0  0  0  0  0  0  0  0  0  0  0
   -6.4850   -1.9490  -17.6440 C   0  0  0  0  0  0  0  0  0  0  0  0
   -1.2820   -1.3740  -15.9230 C   0  0  0  0  0  0  0  0  0  0  0  0
   -7.0720   -2.5890  -16.5440 C   0  0  0  0  0  0  0  0  0  0  0  0
   -8.3420   -3.7660  -15.1660 N   0  0  0  0  0  0  0  0  0  0  0  0
   -7.4020   -1.5700  -18.7010 C   0  0  0  0  0  0  0  0  0  0  0  0
   -2.2650   -2.3110  -15.3500 C   0  0  0  0  0  0  0  0  0  0  0  0
  1 15  4  0
  2 12  4  0
  3  1  4  0
  3  2  4  0
  4 17  4  0
  5 14  4  0
  5  2  4  0
  6 11  4  0
  7 18  4  0
  8  5  4  0
  9  4  1  0
 10  8  4  0
 10  3  4  0
 12 19  4  0
 13  7  4  0
 13  8  4  0
 14 16  1  0
 15 19  4  0
 16  4  4  0
 16  6  4  0
 17 11  4  0
 18 14  4  0
M  END
$$$$

     RDKit          3D

 19 22  0  0  0  0  0  0  0  0999 V2000
   -1.5770   -1.0070  -16.7380 C   0  0  0  0  0  0  0  0  0  0  0  0
   -3.7150   -2.0740  -17.0130 C   0  0  0  0  0  0  0  0  0  0  0  0
   -2.6530   -1.2790  -17.5560 C   0  0  0  0  0  0  0  0  0  0  0  0
   -8.1850   -2.6730  -16.5340 N   0  0  0  0  0  0  0  0  0  0  0  0
   -4.8640   -1.7170  -17.8980 C   0  0  0  0  0  0  0  0  0  0  0  0
   -6.2420   -2.9040  -15.6520 N   0  0  0  0  0  0  0  0  0  0  0  0
   -6.4370   -0.8930  -20.0180 C   0  0  0  0  0  0  0  0  0  0  0  0
   -4.3560   -1.0540  -19.0230 C   0  0  0  0  0  0  0  0  0  0  0  0
   -9.3760   -2.5110  -17.3770 C   0  0  0  0  0  0  0  0  0  0  0  0
   -3.0300   -0.8420  -18.7400 N   0  0  0  0  0  0  0  0  0  0  0  0
   -7.1620   -3.2220  -14.7760 C   0  0  0  0  0  0  0  0  0  0  0  0
   -3.4250   -2.8820  -15.9280 N   0  0  0  0  0  0  0  0  0  0  0  0
   -5.1130   -0.5920  -20.0410 N   0  0  0  0  0  0  0  0  0  0  0  0
   -6.2930   -1.9210  -17.9500 C   0  0  0  0  0  0  0  0  0  0  0  0
   -1.3160   -1.7870  -15.6280 C   0  0  0  0  0  0  0  0  0  0  0  0
   -6.9050   -2.5880  -16.8390 C   0  0  0  0  0  0  0  0  0  0  0  0
   -8.4050   -3.0800  -15.1960 N   0  0  0  0  0  0  0  0  0  0  0  0
   -7.0150   -1.5170  -19.0270 N   0  0  0  0  0  0  0  0  0  0  0  0
   -2.2180   -2.7620  -15.2540 C   0  0  0  0  0  0  0  0  0  0  0  0
  1 15  4  0
  2 12  4  0
  3  2  4  0
  3  1  4  0
  4 17  4  0
  5  2  4  0
  6 11  4  0
  7 18  4  0
  8 10  4  0
  8  5  1  0
  9  4  1  0
 10  3  4  0
 12 19  4  0
 13  7  4  0
 13  8  4  0
 14  5  4  0
 14 16  1  0
 15 19  4  0
 16  4  4  0
 16  6  4  0
 17 11  4  0
 18 14  4  0
M  END
$$$$

     RDKit          3D

 19 22  0  0  0  0  0  0  0  0999 V2000
   -1.3110   -0.9050  -17.1130 C   0  0  0  0  0  0  0  0  0  0  0  0
   -3.6200   -1.8650  -17.0020 C   0  0  0  0  0  0  0  0  0  0  0  0
   -2.5190   -1.1570  -17.6650 C   0  0  0  0  0  0  0  0  0  0  0  0
   -8.0210   -3.0580  -16.3470 N   0  0  0  0  0  0  0  0  0  0  0  0
   -4.7940   -1.6190  -17.7400 C   0  0  0  0  0  0  0  0  0  0  0  0
   -6.0370   -3.1080  -15.4190 C   0  0  0  0  0  0  0  0  0  0  0  0
   -6.6210   -1.0410  -19.5280 C   0  0  0  0  0  0  0  0  0  0  0  0
   -4.4710   -0.9340  -18.8920 C   0  0  0  0  0  0  0  0  0  0  0  0
   -9.1780   -2.9630  -17.1890 C   0  0  0  0  0  0  0  0  0  0  0  0
   -3.1240   -0.6470  -18.8520 N   0  0  0  0  0  0  0  0  0  0  0  0
   -6.8780   -3.8310  -14.5750 N   0  0  0  0  0  0  0  0  0  0  0  0
   -3.2920   -2.6340  -15.8220 C   0  0  0  0  0  0  0  0  0  0  0  0
   -5.3660   -0.6430  -19.8650 N   0  0  0  0  0  0  0  0  0  0  0  0
   -6.1600   -1.9790  -17.5900 C   0  0  0  0  0  0  0  0  0  0  0  0
   -0.8420   -1.9970  -16.0670 C   0  0  0  0  0  0  0  0  0  0  0  0
   -6.7260   -2.6640  -16.5380 C   0  0  0  0  0  0  0  0  0  0  0  0
   -8.0760   -3.6610  -15.1980 N   0  0  0  0  0  0  0  0  0  0  0  0
   -7.0570   -1.6790  -18.4610 N   0  0  0  0  0  0  0  0  0  0  0  0
   -1.9880   -2.7120  -15.3890 C   0  0  0  0  0  0  0  0  0  0  0  0
  1 15  1  0
  2 12  1  0
  3  1  1  0
  3  2  1  0
  4 17  4  0
  5 14  4  0
  5  2  2  0
  6 11  4  0
  7 18  4  0
  8 10  2  0
  8  5  4  0
  9  4  1  0
 10  3  1  0
 12 19  2  0
 13  7  4  0
 13  8  4  0
 14 16  1  0
 15 19  1  0
 16  4  4  0
 16  6  4  0
 17 11  4  0
 18 14  4  0
M  END
$$$$

     RDKit          3D

 19 22  0  0  0  0  0  0  0  0999 V2000
   -1.6560   -1.5050  -17.0900 C   0  0  0  0  0  0  0  0  0  0  0  0
   -3.9350   -2.0270  -16.9560 C   0  0  0  0  0  0  0  0  0  0  0  0
   -2.8840   -1.5620  -17.5770 C   0  0  0  0  0  0  0  0  0  0  0  0
   -8.4600   -2.9580  -16.6760 C   0  0  0  0  0  0  0  0  0  0  0  0
   -5.0020   -1.7370  -17.8890 C   0  0  0  0  0  0  0  0  0  0  0  0
   -6.5790   -2.6750  -15.4190 C   0  0  0  0  0  0  0  0  0  0  0  0
   -6.6090   -0.9490  -19.9730 C   0  0  0  0  0  0  0  0  0  0  0  0
   -4.5100   -1.1020  -18.9830 C   0  0  0  0  0  0  0  0  0  0  0  0
   -9.5660   -3.0790  -17.4920 C   0  0  0  0  0  0  0  0  0  0  0  0
   -3.3110   -0.9750  -18.7550 N   0  0  0  0  0  0  0  0  0  0  0  0
   -7.5380   -3.1750  -14.6720 N   0  0  0  0  0  0  0  0  0  0  0  0
   -3.7030   -2.5130  -15.7480 C   0  0  0  0  0  0  0  0  0  0  0  0
   -5.2800   -0.6600  -20.0390 C   0  0  0  0  0  0  0  0  0  0  0  0
   -6.4900   -1.9530  -17.8180 C   0  0  0  0  0  0  0  0  0  0  0  0
   -1.4080   -2.0860  -15.9300 C   0  0  0  0  0  0  0  0  0  0  0  0
   -7.1560   -2.5610  -16.7510 C   0  0  0  0  0  0  0  0  0  0  0  0
   -8.6270   -3.4580  -15.4150 O   0  0  0  0  0  0  0  0  0  0  0  0
   -7.1790   -1.6020  -18.8950 C   0  0  0  0  0  0  0  0  0  0  0  0
   -2.4390   -2.5390  -15.2670 C   0  0  0  0  0  0  0  0  0  0  0  0
  1 15  1  0
  2 12  1  0
  3  1  2  0
  3  2  1  0
  4 17  4  0
  5 14  4  0
  5  2  2  0
  6 11  4  0
  7 18  4  0
  8 10  2  0
  8  5  4  0
  9  4  1  0
 10  3  1  0
 12 19  2  0
 13  7  4  0
 13  8  4  0
 14 16  1  0
 15 19  1  0
 16  4  4  0
 16  6  4  0
 17 11  4  0
 18 14  4  0
M  END
$$$$

     RDKit          3D

 19 22  0  0  0  0  0  0  0  0999 V2000
   -1.2200   -0.7540  -16.8980 C   0  0  0  0  0  0  0  0  0  0  0  0
   -3.5070   -1.5760  -16.9340 C   0  0  0  0  0  0  0  0  0  0  0  0
   -2.4680   -0.9090  -17.5580 C   0  0  0  0  0  0  0  0  0  0  0  0
   -8.0170   -2.7990  -16.4800 C   0  0  0  0  0  0  0  0  0  0  0  0
   -4.7400   -1.4520  -17.8430 C   0  0  0  0  0  0  0  0  0  0  0  0
   -6.0560   -2.8790  -15.4490 C   0  0  0  0  0  0  0  0  0  0  0  0
   -6.4400   -0.9480  -19.9800 C   0  0  0  0  0  0  0  0  0  0  0  0
   -4.2230   -0.8710  -18.9710 C   0  0  0  0  0  0  0  0  0  0  0  0
   -9.0510   -2.6990  -17.2860 N   0  0  0  0  0  0  0  0  0  0  0  0
   -2.9070   -0.5210  -18.8700 N   0  0  0  0  0  0  0  0  0  0  0  0
   -6.9920   -3.4800  -14.6340 N   0  0  0  0  0  0  0  0  0  0  0  0
   -3.1420   -2.3960  -15.8560 C   0  0  0  0  0  0  0  0  0  0  0  0
   -5.1000   -0.5790  -20.0460 C   0  0  0  0  0  0  0  0  0  0  0  0
   -6.0730   -1.8400  -17.7870 C   0  0  0  0  0  0  0  0  0  0  0  0
   -0.9420   -1.5070  -15.8370 C   0  0  0  0  0  0  0  0  0  0  0  0
   -6.7440   -2.4740  -16.6430 C   0  0  0  0  0  0  0  0  0  0  0  0
   -8.2370   -3.3880  -15.2440 N   0  0  0  0  0  0  0  0  0  0  0  0
   -6.8860   -1.5200  -18.7880 C   0  0  0  0  0  0  0  0  0  0  0  0
   -1.9000   -2.3710  -15.3180 C   0  0  0  0  0  0  0  0  0  0  0  0
  1 15  1  0
  2 12  1  0
  3  2  1  0
  3  1  2  0
  4 17  4  0
  5 14  4  0
  5  2  2  0
  6 11  4  0
  7 18  4  0
  8 10  2  0
  8  5  4  0
  9  4  1  0
 10  3  1  0
 12 19  2  0
 13  7  4  0
 13  8  4  0
 14 16  1  0
 15 19  1  0
 16  4  4  0
 16  6  4  0
 17 11  4  0
 18 14  4  0
M  END
$$$$

     RDKit          3D

 19 22  0  0  0  0  0  0  0  0999 V2000
   -1.3510   -0.8540  -17.0710 C   0  0  0  0  0  0  0  0  0  0  0  0
   -3.7250   -1.6580  -16.9470 C   0  0  0  0  0  0  0  0  0  0  0  0
   -2.6290   -0.9360  -17.6730 C   0  0  0  0  0  0  0  0  0  0  0  0
   -8.2940   -2.8430  -16.5330 C   0  0  0  0  0  0  0  0  0  0  0  0
   -4.9380   -1.5550  -17.8730 C   0  0  0  0  0  0  0  0  0  0  0  0
   -6.2890   -2.8700  -15.6400 N   0  0  0  0  0  0  0  0  0  0  0  0
   -6.6300   -0.8510  -19.9740 C   0  0  0  0  0  0  0  0  0  0  0  0
   -4.4150   -0.9250  -19.0620 C   0  0  0  0  0  0  0  0  0  0  0  0
   -9.5070   -2.7280  -17.3910 C   0  0  0  0  0  0  0  0  0  0  0  0
   -3.0040   -0.7640  -18.8540 N   0  0  0  0  0  0  0  0  0  0  0  0
   -7.1390   -3.4860  -14.7970 N   0  0  0  0  0  0  0  0  0  0  0  0
   -3.4180   -2.3600  -15.7900 C   0  0  0  0  0  0  0  0  0  0  0  0
   -5.1720   -0.5500  -20.0650 C   0  0  0  0  0  0  0  0  0  0  0  0
   -6.2540   -1.7930  -17.7570 C   0  0  0  0  0  0  0  0  0  0  0  0
   -1.1150   -1.6220  -15.9420 C   0  0  0  0  0  0  0  0  0  0  0  0
   -6.8840   -2.4610  -16.6890 C   0  0  0  0  0  0  0  0  0  0  0  0
   -8.3670   -3.4850  -15.3200 N   0  0  0  0  0  0  0  0  0  0  0  0
   -7.1070   -1.4390  -18.8670 C   0  0  0  0  0  0  0  0  0  0  0  0
   -2.1320   -2.3370  -15.3070 C   0  0  0  0  0  0  0  0  0  0  0  0
  1 15  4  0
  2 12  4  0
  3  1  4  0
  3  2  4  0
  4 17  4  0
  5 14  4  0
  5  2  4  0
  6 11  4  0
  7 18  4  0
  8 10  4  0
  8  5  4  0
  9  4  1  0
 10  3  4  0
 12 19  4  0
 13  7  4  0
 13  8  4  0
 14 16  1  0
 15 19  4  0
 16  4  4  0
 16  6  4  0
 17 11  4  0
 18 14  4  0
M  END
$$$$

     RDKit          3D

 19 22  0  0  0  0  0  0  0  0999 V2000
   -1.1080   -1.7850  -17.3810 C   0  0  0  0  0  0  0  0  0  0  0  0
   -3.5380   -2.0630  -17.1010 C   0  0  0  0  0  0  0  0  0  0  0  0
   -2.4640   -1.5110  -17.7910 C   0  0  0  0  0  0  0  0  0  0  0  0
   -8.2090   -2.8610  -16.4710 C   0  0  0  0  0  0  0  0  0  0  0  0
   -4.7390   -1.7090  -17.9430 C   0  0  0  0  0  0  0  0  0  0  0  0
   -6.0890   -3.0800  -15.8170 N   0  0  0  0  0  0  0  0  0  0  0  0
   -6.3810   -0.5850  -19.9530 N   0  0  0  0  0  0  0  0  0  0  0  0
   -4.2340   -1.1170  -19.0040 C   0  0  0  0  0  0  0  0  0  0  0  0
   -9.4570   -2.4260  -17.1730 C   0  0  0  0  0  0  0  0  0  0  0  0
   -2.8640   -1.0760  -18.9740 N   0  0  0  0  0  0  0  0  0  0  0  0
   -6.8240   -3.7350  -14.7790 N   0  0  0  0  0  0  0  0  0  0  0  0
   -3.3060   -2.7170  -15.8780 C   0  0  0  0  0  0  0  0  0  0  0  0
   -5.0530   -0.5340  -20.0030 C   0  0  0  0  0  0  0  0  0  0  0  0
   -6.1560   -1.8550  -17.8800 C   0  0  0  0  0  0  0  0  0  0  0  0
   -0.9110   -2.2670  -16.1280 C   0  0  0  0  0  0  0  0  0  0  0  0
   -6.8180   -2.6120  -16.7920 C   0  0  0  0  0  0  0  0  0  0  0  0
   -8.2150   -3.5760  -15.2990 N   0  0  0  0  0  0  0  0  0  0  0  0
   -6.9560   -1.2580  -18.8730 C   0  0  0  0  0  0  0  0  0  0  0  0
   -1.9920   -2.7500  -15.3730 C   0  0  0  0  0  0  0  0  0  0  0  0
  1 15  1  0
  2 12  1  0
  3  1  2  0
  3  2  1  0
  4 17  4  0
  5 14  4  0
  5  2  2  0
  6 11  4  0
  7 18  4  0
  8 10  2  0
  8  5  4  0
  9  4  1  0
 10  3  1  0
 12 19  2  0
 13  7  4  0
 13  8  4  0
 14 16  1  0
 15 19  1  0
 16  4  4  0
 16  6  4  0
 17 11  4  0
 18 14  4  0
M  END
$$$$

     RDKit          3D

 19 22  0  0  0  0  0  0  0  0999 V2000
   -1.1590   -1.0460  -17.1290 C   0  0  0  0  0  0  0  0  0  0  0  0
   -3.5500   -1.7430  -16.9690 C   0  0  0  0  0  0  0  0  0  0  0  0
   -2.4870   -1.1220  -17.6760 C   0  0  0  0  0  0  0  0  0  0  0  0
   -8.1360   -2.9960  -16.4330 C   0  0  0  0  0  0  0  0  0  0  0  0
   -4.7370   -1.5570  -17.8600 C   0  0  0  0  0  0  0  0  0  0  0  0
   -6.0330   -3.1840  -15.5170 N   0  0  0  0  0  0  0  0  0  0  0  0
   -6.4260   -1.0460  -19.9890 C   0  0  0  0  0  0  0  0  0  0  0  0
   -4.3470   -0.9060  -18.8990 N   0  0  0  0  0  0  0  0  0  0  0  0
   -9.3700   -2.7950  -17.3140 C   0  0  0  0  0  0  0  0  0  0  0  0
   -2.9460   -0.5210  -18.8080 N   0  0  0  0  0  0  0  0  0  0  0  0
   -7.0180   -3.7530  -14.7790 N   0  0  0  0  0  0  0  0  0  0  0  0
   -3.2930   -2.3290  -15.7340 C   0  0  0  0  0  0  0  0  0  0  0  0
   -5.1510   -0.5570  -19.9800 C   0  0  0  0  0  0  0  0  0  0  0  0
   -6.1470   -1.9950  -17.7540 C   0  0  0  0  0  0  0  0  0  0  0  0
   -0.9590   -1.6130  -15.8690 C   0  0  0  0  0  0  0  0  0  0  0  0
   -6.7050   -2.6370  -16.6670 C   0  0  0  0  0  0  0  0  0  0  0  0
   -8.2310   -3.6850  -15.2930 N   0  0  0  0  0  0  0  0  0  0  0  0
   -6.9240   -1.6860  -18.8940 C   0  0  0  0  0  0  0  0  0  0  0  0
   -2.0110   -2.2970  -15.1730 C   0  0  0  0  0  0  0  0  0  0  0  0
  1 15  4  0
  2 12  4  0
  3  1  4  0
  3  2  4  0
  4 17  4  0
  5 14  4  0
  5  2  4  0
  6 11  4  0
  7 13  4  0
  7 18  4  0
  8 10  4  0
  8  5  4  0
  9  4  1  0
 10  3  4  0
 12 19  4  0
 13  8  4  0
 14 16  1  0
 15 19  4  0
 16  4  4  0
 16  6  4  0
 17 11  4  0
 18 14  4  0
M  END
$$$$

     RDKit          3D

 19 22  0  0  0  0  0  0  0  0999 V2000
   -1.5270   -1.2020  -16.8120 C   0  0  0  0  0  0  0  0  0  0  0  0
   -3.8190   -2.0910  -17.0520 C   0  0  0  0  0  0  0  0  0  0  0  0
   -2.6810   -1.3930  -17.4880 C   0  0  0  0  0  0  0  0  0  0  0  0
   -8.3870   -3.0170  -16.4260 C   0  0  0  0  0  0  0  0  0  0  0  0
   -5.0480   -1.7340  -17.8810 C   0  0  0  0  0  0  0  0  0  0  0  0
   -6.2940   -3.0080  -15.5740 N   0  0  0  0  0  0  0  0  0  0  0  0
   -6.9150   -0.9510  -19.7380 C   0  0  0  0  0  0  0  0  0  0  0  0
   -4.6940   -0.9590  -18.9630 C   0  0  0  0  0  0  0  0  0  0  0  0
   -9.5650   -2.7390  -17.2650 C   0  0  0  0  0  0  0  0  0  0  0  0
   -2.9780   -0.5950  -19.0360 S   0  0  0  0  0  0  0  0  0  0  0  0
   -7.1780   -3.6610  -14.7260 N   0  0  0  0  0  0  0  0  0  0  0  0
   -3.5370   -2.9180  -15.9950 C   0  0  0  0  0  0  0  0  0  0  0  0
   -5.6220   -0.5500  -19.8990 C   0  0  0  0  0  0  0  0  0  0  0  0
   -6.4800   -2.0300  -17.7460 C   0  0  0  0  0  0  0  0  0  0  0  0
   -1.4180   -1.9730  -15.6350 N   0  0  0  0  0  0  0  0  0  0  0  0
   -7.0990   -2.6940  -16.6080 C   0  0  0  0  0  0  0  0  0  0  0  0
   -8.5230   -3.6230  -15.2440 N   0  0  0  0  0  0  0  0  0  0  0  0
   -7.3500   -1.6130  -18.6840 N   0  0  0  0  0  0  0  0  0  0  0  0
   -2.3420   -2.8730  -15.2680 C   0  0  0  0  0  0  0  0  0  0  0  0
  1 15  4  0
  2 12  4  0
  3  2  4  0
  3  1  4  0
  4 17  4  0
  5 14  4  0
  5  2  4  0
  6 11  4  0
  7 18  4  0
  8  5  4  0
  9  4  1  0
 10  8  4  0
 10  3  4  0
 12 19  4  0
 13  7  4  0
 13  8  4  0
 14 16  1  0
 15 19  4  0
 16  4  4  0
 16  6  4  0
 17 11  4  0
 18 14  4  0
M  END
$$$$

     RDKit          3D

 19 22  0  0  0  0  0  0  0  0999 V2000
   -1.7860   -0.7210  -16.4290 C   0  0  0  0  0  0  0  0  0  0  0  0
   -4.0570   -1.7440  -16.8750 C   0  0  0  0  0  0  0  0  0  0  0  0
   -2.9800   -1.0400  -17.3530 C   0  0  0  0  0  0  0  0  0  0  0  0
   -8.2960   -3.1600  -16.7570 C   0  0  0  0  0  0  0  0  0  0  0  0
   -5.1780   -1.4990  -17.9100 C   0  0  0  0  0  0  0  0  0  0  0  0
   -6.3710   -3.2670  -15.5650 C   0  0  0  0  0  0  0  0  0  0  0  0
   -6.8410   -0.7760  -19.8840 N   0  0  0  0  0  0  0  0  0  0  0  0
   -4.6830   -0.8580  -19.0240 C   0  0  0  0  0  0  0  0  0  0  0  0
   -9.5160   -2.9330  -17.7650 S   0  0  0  0  0  0  0  0  0  0  0  0
   -2.9220   -0.6170  -18.9630 S   0  0  0  0  0  0  0  0  0  0  0  0
   -7.4170   -3.8470  -14.8490 N   0  0  0  0  0  0  0  0  0  0  0  0
   -3.9530   -2.3570  -15.4470 C   0  0  0  0  0  0  0  0  0  0  0  0
   -5.5650   -0.4450  -20.0120 C   0  0  0  0  0  0  0  0  0  0  0  0
   -6.4710   -1.8320  -17.8690 C   0  0  0  0  0  0  0  0  0  0  0  0
   -1.5030   -1.8710  -15.5850 C   0  0  0  0  0  0  0  0  0  0  0  0
   -6.9450   -2.7300  -16.7920 C   0  0  0  0  0  0  0  0  0  0  0  0
   -8.6250   -3.8160  -15.5450 N   0  0  0  0  0  0  0  0  0  0  0  0
   -7.3100   -1.5140  -18.8200 N   0  0  0  0  0  0  0  0  0  0  0  0
   -2.5950   -2.7980  -15.2830 C   0  0  0  0  0  0  0  0  0  0  0  0
  1 15  1  0
  2 12  1  0
  3  2  1  0
  3  1  1  0
  4 17  1  0
  5 14  4  0
  5  2  1  0
  6 11  2  0
  7 18  4  0
  8 10  1  0
  8  5  4  0
  9  4  2  0
 10  3  1  0
 12 19  1  0
 13  7  4  0
 13  8  4  0
 15 19  1  0
 16 14  1  0
 16  4  1  0
 16  6  1  0
 17 11  1  0
 18 14  4  0
M  END
$$$$

     RDKit          3D

 19 22  0  0  0  0  0  0  0  0999 V2000
   -1.2600   -0.6520  -16.7770 C   0  0  0  0  0  0  0  0  0  0  0  0
   -3.4260   -1.7460  -16.8820 C   0  0  0  0  0  0  0  0  0  0  0  0
   -2.4180   -1.0630  -17.4450 C   0  0  0  0  0  0  0  0  0  0  0  0
   -7.8780   -3.0400  -16.4520 C   0  0  0  0  0  0  0  0  0  0  0  0
   -4.6000   -1.5950  -17.6560 C   0  0  0  0  0  0  0  0  0  0  0  0
   -5.9800   -3.3600  -15.4990 C   0  0  0  0  0  0  0  0  0  0  0  0
   -6.3310   -0.7690  -19.7140 C   0  0  0  0  0  0  0  0  0  0  0  0
   -4.1150   -0.8620  -18.7600 C   0  0  0  0  0  0  0  0  0  0  0  0
   -8.9590   -2.7940  -17.4300 C   0  0  0  0  0  0  0  0  0  0  0  0
   -2.8020   -0.6120  -18.6620 N   0  0  0  0  0  0  0  0  0  0  0  0
   -6.8880   -3.9590  -14.8250 N   0  0  0  0  0  0  0  0  0  0  0  0
   -3.1120   -2.3720  -15.6360 C   0  0  0  0  0  0  0  0  0  0  0  0
   -5.0020   -0.4930  -19.7730 C   0  0  0  0  0  0  0  0  0  0  0  0
   -5.9320   -1.9440  -17.6390 C   0  0  0  0  0  0  0  0  0  0  0  0
   -1.0050   -1.3320  -15.5720 C   0  0  0  0  0  0  0  0  0  0  0  0
   -6.5760   -2.7380  -16.5420 C   0  0  0  0  0  0  0  0  0  0  0  0
   -8.1010   -3.7950  -15.3270 N   0  0  0  0  0  0  0  0  0  0  0  0
   -6.7620   -1.5170  -18.6420 C   0  0  0  0  0  0  0  0  0  0  0  0
   -1.9460   -2.1960  -15.0230 C   0  0  0  0  0  0  0  0  0  0  0  0
  1 15  1  0
  2 12  1  0
  3  2  1  0
  3  1  2  0
  4 17  4  0
  5 14  4  0
  5  2  2  0
  6 11  4  0
  7 18  4  0
  8 10  2  0
  8  5  4  0
  9  4  1  0
 10  3  1  0
 12 19  2  0
 13  7  4  0
 13  8  4  0
 14 16  1  0
 15 19  1  0
 16  4  4  0
 16  6  4  0
 17 11  4  0
 18 14  4  0
M  END
$$$$

     RDKit          3D

 19 22  0  0  0  0  0  0  0  0999 V2000
   -1.4650   -0.9120  -16.5790 C   0  0  0  0  0  0  0  0  0  0  0  0
   -3.6300   -1.8830  -16.7470 C   0  0  0  0  0  0  0  0  0  0  0  0
   -2.6100   -1.1510  -17.2060 C   0  0  0  0  0  0  0  0  0  0  0  0
   -8.0480   -3.1910  -16.3790 N   0  0  0  0  0  0  0  0  0  0  0  0
   -4.7940   -1.7510  -17.6560 C   0  0  0  0  0  0  0  0  0  0  0  0
   -6.2030   -3.3900  -15.4610 C   0  0  0  0  0  0  0  0  0  0  0  0
   -6.4160   -0.8150  -19.6520 C   0  0  0  0  0  0  0  0  0  0  0  0
   -4.3930   -0.9230  -18.6850 C   0  0  0  0  0  0  0  0  0  0  0  0
   -9.1120   -3.0550  -17.1380 C   0  0  0  0  0  0  0  0  0  0  0  0
   -2.9980   -0.6440  -18.4290 N   0  0  0  0  0  0  0  0  0  0  0  0
   -7.0500   -4.0650  -14.8420 N   0  0  0  0  0  0  0  0  0  0  0  0
   -3.3510   -2.6680  -15.6110 C   0  0  0  0  0  0  0  0  0  0  0  0
   -5.1400   -0.5630  -19.6410 N   0  0  0  0  0  0  0  0  0  0  0  0
   -6.2050   -1.9880  -17.6050 C   0  0  0  0  0  0  0  0  0  0  0  0
   -1.2430   -1.6830  -15.4590 C   0  0  0  0  0  0  0  0  0  0  0  0
   -6.7880   -2.7070  -16.6380 C   0  0  0  0  0  0  0  0  0  0  0  0
   -8.1310   -3.9840  -15.4150 N   0  0  0  0  0  0  0  0  0  0  0  0
   -7.0070   -1.4700  -18.6410 N   0  0  0  0  0  0  0  0  0  0  0  0
   -2.2150   -2.5200  -14.9460 C   0  0  0  0  0  0  0  0  0  0  0  0
  1 15  4  0
  2 12  4  0
  3  2  4  0
  3  1  4  0
  4 17  4  0
  5  8  1  0
  5 14  1  0
  5  2  1  0
  6 11  4  0
  7 13  2  0
  7 18  1  0
  8 10  2  0
  9  4  1  0
 10  3  1  0
 12 19  4  0
 13  8  1  0
 14 16  1  0
 15 19  4  0
 16  4  4  0
 16  6  4  0
 17 11  4  0
 18 14  2  0
M  END
$$$$

     RDKit          3D

 19 22  0  0  0  0  0  0  0  0999 V2000
   -1.5240   -0.7700  -16.9930 C   0  0  0  0  0  0  0  0  0  0  0  0
   -3.7760   -1.6990  -16.9210 C   0  0  0  0  0  0  0  0  0  0  0  0
   -2.8170   -0.9550  -17.5990 C   0  0  0  0  0  0  0  0  0  0  0  0
   -8.2760   -2.9700  -16.4800 C   0  0  0  0  0  0  0  0  0  0  0  0
   -5.0130   -1.5290  -17.7780 C   0  0  0  0  0  0  0  0  0  0  0  0
   -6.2980   -3.0820  -15.5620 N   0  0  0  0  0  0  0  0  0  0  0  0
   -6.6650   -0.8970  -19.8460 C   0  0  0  0  0  0  0  0  0  0  0  0
   -4.5940   -0.9100  -18.8740 C   0  0  0  0  0  0  0  0  0  0  0  0
   -9.4540   -2.6060  -17.2970 C   0  0  0  0  0  0  0  0  0  0  0  0
   -3.2850   -0.6640  -18.7550 N   0  0  0  0  0  0  0  0  0  0  0  0
   -7.1000   -3.8340  -14.8710 N   0  0  0  0  0  0  0  0  0  0  0  0
   -3.4260   -2.4400  -15.8650 C   0  0  0  0  0  0  0  0  0  0  0  0
   -5.3420   -0.6290  -19.8710 C   0  0  0  0  0  0  0  0  0  0  0  0
   -6.3290   -1.8370  -17.6770 C   0  0  0  0  0  0  0  0  0  0  0  0
   -1.2480   -1.4580  -15.8990 C   0  0  0  0  0  0  0  0  0  0  0  0
   -6.8770   -2.5320  -16.6150 C   0  0  0  0  0  0  0  0  0  0  0  0
   -8.2840   -3.7960  -15.4890 N   0  0  0  0  0  0  0  0  0  0  0  0
   -7.0410   -1.3310  -18.6880 C   0  0  0  0  0  0  0  0  0  0  0  0
   -2.1950   -2.3670  -15.3320 C   0  0  0  0  0  0  0  0  0  0  0  0
  1 15  4  0
  2 12  4  0
  3  1  4  0
  3  2  4  0
  4 17  4  0
  5 14  4  0
  5  2  4  0
  6 11  4  0
  7 18  4  0
  8 10  4  0
  8  5  4  0
  9  4  1  0
 10  3  4  0
 12 19  4  0
 13  7  4  0
 13  8  4  0
 14 16  1  0
 15 19  4  0
 16  4  4  0
 16  6  4  0
 17 11  4  0
 18 14  4  0
M  END
$$$$

     RDKit          3D

 19 22  0  0  0  0  0  0  0  0999 V2000
   -1.2600   -1.1000  -17.4290 C   0  0  0  0  0  0  0  0  0  0  0  0
   -3.6270   -1.6630  -17.1490 C   0  0  0  0  0  0  0  0  0  0  0  0
   -2.5890   -1.1070  -17.8740 C   0  0  0  0  0  0  0  0  0  0  0  0
   -8.1930   -2.7370  -16.1980 C   0  0  0  0  0  0  0  0  0  0  0  0
   -4.8980   -1.5370  -17.9820 C   0  0  0  0  0  0  0  0  0  0  0  0
   -6.0810   -2.9570  -15.6910 N   0  0  0  0  0  0  0  0  0  0  0  0
   -6.7890   -0.6990  -19.9560 C   0  0  0  0  0  0  0  0  0  0  0  0
   -4.5100   -0.8200  -19.1450 C   0  0  0  0  0  0  0  0  0  0  0  0
   -9.4830   -2.2190  -16.7770 C   0  0  0  0  0  0  0  0  0  0  0  0
   -3.1810   -0.5980  -19.0210 N   0  0  0  0  0  0  0  0  0  0  0  0
   -6.8310   -3.5970  -14.8350 N   0  0  0  0  0  0  0  0  0  0  0  0
   -3.3770   -2.2340  -15.9630 C   0  0  0  0  0  0  0  0  0  0  0  0
   -5.4120   -0.4160  -20.1080 C   0  0  0  0  0  0  0  0  0  0  0  0
   -6.3870   -1.7870  -17.8060 C   0  0  0  0  0  0  0  0  0  0  0  0
   -1.0800   -1.6740  -16.2490 C   0  0  0  0  0  0  0  0  0  0  0  0
   -6.8660   -2.4560  -16.6190 C   0  0  0  0  0  0  0  0  0  0  0  0
   -8.1440   -3.4700  -15.0810 N   0  0  0  0  0  0  0  0  0  0  0  0
   -7.2240   -1.3560  -18.8260 C   0  0  0  0  0  0  0  0  0  0  0  0
   -2.0300   -2.2560  -15.4870 C   0  0  0  0  0  0  0  0  0  0  0  0
  1 15  1  0
  2 12  1  0
  3  1  2  0
  3  2  1  0
  4 17  4  0
  5 14  4  0
  5  2  2  0
  6 11  4  0
  7 18  4  0
  8 10  2  0
  8  5  4  0
  9  4  1  0
 10  3  1  0
 12 19  2  0
 13  7  4  0
 13  8  4  0
 14 16  1  0
 15 19  1  0
 16  4  4  0
 16  6  4  0
 17 11  4  0
 18 14  4  0
M  END
$$$$

     RDKit          3D

 19 22  0  0  0  0  0  0  0  0999 V2000
   -1.7370   -1.1960  -16.7270 C   0  0  0  0  0  0  0  0  0  0  0  0
   -3.9520   -2.0520  -16.9090 C   0  0  0  0  0  0  0  0  0  0  0  0
   -2.8390   -1.5610  -17.3580 C   0  0  0  0  0  0  0  0  0  0  0  0
   -8.4330   -2.7960  -16.5180 C   0  0  0  0  0  0  0  0  0  0  0  0
   -5.0360   -1.7070  -17.7950 N   0  0  0  0  0  0  0  0  0  0  0  0
   -6.4770   -2.8090  -15.4040 N   0  0  0  0  0  0  0  0  0  0  0  0
   -6.6140   -0.7530  -19.9040 C   0  0  0  0  0  0  0  0  0  0  0  0
   -4.4410   -1.0900  -18.8750 C   0  0  0  0  0  0  0  0  0  0  0  0
   -9.4930   -2.8440  -17.3590 C   0  0  0  0  0  0  0  0  0  0  0  0
   -3.1280   -0.9890  -18.6810 N   0  0  0  0  0  0  0  0  0  0  0  0
   -7.4640   -3.3520  -14.7550 O   0  0  0  0  0  0  0  0  0  0  0  0
   -3.7580   -2.7250  -15.6060 C   0  0  0  0  0  0  0  0  0  0  0  0
   -5.2450   -0.5300  -19.9250 C   0  0  0  0  0  0  0  0  0  0  0  0
   -6.4660   -1.8510  -17.7400 C   0  0  0  0  0  0  0  0  0  0  0  0
   -1.5180   -1.7290  -15.5470 C   0  0  0  0  0  0  0  0  0  0  0  0
   -7.1120   -2.4450  -16.6580 C   0  0  0  0  0  0  0  0  0  0  0  0
   -8.6990   -3.3080  -15.3130 N   0  0  0  0  0  0  0  0  0  0  0  0
   -7.1540   -1.3710  -18.7560 C   0  0  0  0  0  0  0  0  0  0  0  0
   -2.5440   -2.5690  -14.9680 C   0  0  0  0  0  0  0  0  0  0  0  0
  1 15  4  0
  2 12  4  0
  3  2  4  0
  3  1  4  0
  4 17  4  0
  5 14  4  0
  5  2  4  0
  6 11  4  0
  7 18  4  0
  8 10  4  0
  8  5  4  0
  9  4  1  0
 10  3  4  0
 12 19  4  0
 13  7  4  0
 13  8  4  0
 14 16  1  0
 15 19  4  0
 16  4  4  0
 16  6  4  0
 17 11  4  0
 18 14  4  0
M  END
$$$$

     RDKit          3D

 19 22  0  0  0  0  0  0  0  0999 V2000
   -1.3050   -1.2580  -17.5820 C   0  0  0  0  0  0  0  0  0  0  0  0
   -3.7030   -1.6640  -17.2190 C   0  0  0  0  0  0  0  0  0  0  0  0
   -2.6240   -1.3100  -18.0110 C   0  0  0  0  0  0  0  0  0  0  0  0
   -8.2910   -2.6830  -16.2580 C   0  0  0  0  0  0  0  0  0  0  0  0
   -4.9010   -1.5750  -17.9610 C   0  0  0  0  0  0  0  0  0  0  0  0
   -6.3300   -3.1790  -15.5670 N   0  0  0  0  0  0  0  0  0  0  0  0
   -6.8010   -1.0270  -19.8090 C   0  0  0  0  0  0  0  0  0  0  0  0
   -4.5350   -1.0040  -19.1150 C   0  0  0  0  0  0  0  0  0  0  0  0
   -9.3990   -2.2610  -17.0150 N   0  0  0  0  0  0  0  0  0  0  0  0
   -3.2010   -0.9140  -19.1900 N   0  0  0  0  0  0  0  0  0  0  0  0
   -7.1800   -3.7270  -14.6930 O   0  0  0  0  0  0  0  0  0  0  0  0
   -3.4020   -2.0280  -15.7770 C   0  0  0  0  0  0  0  0  0  0  0  0
   -5.4630   -0.7530  -20.1140 C   0  0  0  0  0  0  0  0  0  0  0  0
   -6.2680   -1.8830  -17.7190 C   0  0  0  0  0  0  0  0  0  0  0  0
   -1.0030   -1.5900  -16.2520 C   0  0  0  0  0  0  0  0  0  0  0  0
   -6.9480   -2.6150  -16.5380 C   0  0  0  0  0  0  0  0  0  0  0  0
   -8.4950   -3.4270  -15.1950 N   0  0  0  0  0  0  0  0  0  0  0  0
   -7.1740   -1.5610  -18.6950 N   0  0  0  0  0  0  0  0  0  0  0  0
   -2.0730   -1.8650  -15.4290 C   0  0  0  0  0  0  0  0  0  0  0  0
  1 15  1  0
  2 12  1  0
  3  1  2  0
  3  2  1  0
  4 17  4  0
  5 14  4  0
  5  2  2  0
  6 11  4  0
  7 18  4  0
  8  5  4  0
  9  4  1  0
 10  8  2  0
 10  3  1  0
 12 19  2  0
 13  7  4  0
 13  8  4  0
 14 16  1  0
 15 19  1  0
 16  4  4  0
 16  6  4  0
 17 11  4  0
 18 14  4  0
M  END
$$$$

     RDKit          3D

 19 22  0  0  0  0  0  0  0  0999 V2000
   -1.6700   -0.7650  -16.7360 C   0  0  0  0  0  0  0  0  0  0  0  0
   -3.8770   -1.8600  -17.0320 C   0  0  0  0  0  0  0  0  0  0  0  0
   -2.8080   -1.0530  -17.4700 C   0  0  0  0  0  0  0  0  0  0  0  0
   -8.5200   -2.8690  -16.3960 C   0  0  0  0  0  0  0  0  0  0  0  0
   -5.0570   -1.6920  -17.8950 C   0  0  0  0  0  0  0  0  0  0  0  0
   -6.5040   -2.9310  -15.6340 C   0  0  0  0  0  0  0  0  0  0  0  0
   -6.9340   -0.9910  -19.9210 N   0  0  0  0  0  0  0  0  0  0  0  0
   -4.6130   -1.0020  -19.0850 C   0  0  0  0  0  0  0  0  0  0  0  0
   -9.8840   -2.6160  -17.0350 C   0  0  0  0  0  0  0  0  0  0  0  0
   -2.9650   -0.5610  -19.1060 S   0  0  0  0  0  0  0  0  0  0  0  0
   -7.3680   -3.6200  -14.8430 N   0  0  0  0  0  0  0  0  0  0  0  0
   -3.6390   -2.6380  -15.9450 C   0  0  0  0  0  0  0  0  0  0  0  0
   -5.5860   -0.6180  -19.9950 C   0  0  0  0  0  0  0  0  0  0  0  0
   -6.4500   -1.9030  -17.8560 C   0  0  0  0  0  0  0  0  0  0  0  0
   -1.4530   -1.5380  -15.6260 C   0  0  0  0  0  0  0  0  0  0  0  0
   -7.1960   -2.5300  -16.7170 C   0  0  0  0  0  0  0  0  0  0  0  0
   -8.5690   -3.5880  -15.2710 N   0  0  0  0  0  0  0  0  0  0  0  0
   -7.3190   -1.5840  -18.8660 N   0  0  0  0  0  0  0  0  0  0  0  0
   -2.4310   -2.5060  -15.2210 C   0  0  0  0  0  0  0  0  0  0  0  0
  1 15  4  0
  2 12  4  0
  3  2  4  0
  3  1  4  0
  4 17  4  0
  5 14  4  0
  5  2  4  0
  6 11  4  0
  7 18  4  0
  8  5  4  0
  9  4  1  0
 10  8  4  0
 10  3  4  0
 12 19  4  0
 13  7  4  0
 13  8  4  0
 14 16  1  0
 15 19  4  0
 16  4  4  0
 16  6  4  0
 17 11  4  0
 18 14  4  0
M  END
$$$$

     RDKit          3D

 19 22  0  0  0  0  0  0  0  0999 V2000
   -1.7270   -0.8470  -16.4650 C   0  0  0  0  0  0  0  0  0  0  0  0
   -3.9430   -1.8300  -16.8540 N   0  0  0  0  0  0  0  0  0  0  0  0
   -2.6300   -1.4330  -17.4710 C   0  0  0  0  0  0  0  0  0  0  0  0
   -8.3870   -2.9470  -16.4860 C   0  0  0  0  0  0  0  0  0  0  0  0
   -4.9900   -1.6180  -17.8370 C   0  0  0  0  0  0  0  0  0  0  0  0
   -6.4720   -3.2730  -15.4540 C   0  0  0  0  0  0  0  0  0  0  0  0
   -6.6970   -0.8890  -20.0180 N   0  0  0  0  0  0  0  0  0  0  0  0
   -4.5120   -0.9770  -18.9950 C   0  0  0  0  0  0  0  0  0  0  0  0
   -9.4570   -2.6930  -17.4120 C   0  0  0  0  0  0  0  0  0  0  0  0
   -2.7990   -0.6550  -18.9800 S   0  0  0  0  0  0  0  0  0  0  0  0
   -7.4170   -3.9020  -14.7110 C   0  0  0  0  0  0  0  0  0  0  0  0
   -3.8100   -2.4030  -15.4220 C   0  0  0  0  0  0  0  0  0  0  0  0
   -5.3650   -0.6940  -20.0790 C   0  0  0  0  0  0  0  0  0  0  0  0
   -6.4280   -1.9100  -17.7410 C   0  0  0  0  0  0  0  0  0  0  0  0
   -1.3650   -1.7200  -15.2900 C   0  0  0  0  0  0  0  0  0  0  0  0
   -7.0670   -2.6590  -16.6060 N   0  0  0  0  0  0  0  0  0  0  0  0
   -8.6220   -3.6020  -15.2710 N   0  0  0  0  0  0  0  0  0  0  0  0
   -7.2450   -1.5310  -18.9010 C   0  0  0  0  0  0  0  0  0  0  0  0
   -2.3540   -2.8460  -15.1020 C   0  0  0  0  0  0  0  0  0  0  0  0
  1 15  1  0
  2 12  1  0
  3  2  1  0
  3  1  1  0
  4 17  4  0
  5 14  4  0
  5  2  1  0
  6 11  4  0
  7 18  4  0
  8 10  1  0
  8  5  4  0
  9  4  1  0
 10  3  1  0
 12 19  1  0
 13  7  4  0
 13  8  4  0
 14 16  1  0
 15 19  1  0
 16  4  4  0
 16  6  4  0
 17 11  4  0
 18 14  4  0
M  END
$$$$

     RDKit          3D

 19 22  0  0  0  0  0  0  0  0999 V2000
   -1.2110   -0.6120  -16.7300 C   0  0  0  0  0  0  0  0  0  0  0  0
   -3.4340   -1.7240  -16.7920 C   0  0  0  0  0  0  0  0  0  0  0  0
   -2.3810   -0.9330  -17.3760 C   0  0  0  0  0  0  0  0  0  0  0  0
   -7.9780   -3.1810  -16.4700 C   0  0  0  0  0  0  0  0  0  0  0  0
   -4.6800   -1.6270  -17.5920 C   0  0  0  0  0  0  0  0  0  0  0  0
   -6.0150   -3.3640  -15.4270 C   0  0  0  0  0  0  0  0  0  0  0  0
   -6.3870   -0.8060  -19.5660 N   0  0  0  0  0  0  0  0  0  0  0  0
   -4.1240   -0.9160  -18.6730 C   0  0  0  0  0  0  0  0  0  0  0  0
   -9.1460   -3.0460  -17.4060 C   0  0  0  0  0  0  0  0  0  0  0  0
   -2.8740   -0.5350  -18.5020 N   0  0  0  0  0  0  0  0  0  0  0  0
   -7.0250   -4.0030  -14.6780 N   0  0  0  0  0  0  0  0  0  0  0  0
   -3.0820   -2.4630  -15.5970 C   0  0  0  0  0  0  0  0  0  0  0  0
   -5.1020   -0.5740  -19.6600 C   0  0  0  0  0  0  0  0  0  0  0  0
   -6.0540   -1.9320  -17.5320 C   0  0  0  0  0  0  0  0  0  0  0  0
   -0.9590   -1.3290  -15.4880 C   0  0  0  0  0  0  0  0  0  0  0  0
   -6.6280   -2.7800  -16.5310 C   0  0  0  0  0  0  0  0  0  0  0  0
   -8.0770   -3.8530  -15.3480 N   0  0  0  0  0  0  0  0  0  0  0  0
   -6.8680   -1.4770  -18.5140 N   0  0  0  0  0  0  0  0  0  0  0  0
   -1.9170   -2.2200  -15.0640 C   0  0  0  0  0  0  0  0  0  0  0  0
  1 15  1  0
  2 12  1  0
  3  2  1  0
  3  1  2  0
  4 17  4  0
  5 14  4  0
  5  2  2  0
  6 11  4  0
  7 18  4  0
  8 10  2  0
  8  5  4  0
  9  4  1  0
 10  3  1  0
 12 19  2  0
 13  7  4  0
 13  8  4  0
 14 16  1  0
 15 19  1  0
 16  4  4  0
 16  6  4  0
 17 11  4  0
 18 14  4  0
M  END
$$$$

     RDKit          3D

 19 22  0  0  0  0  0  0  0  0999 V2000
   -1.2490   -0.8120  -16.7150 C   0  0  0  0  0  0  0  0  0  0  0  0
   -3.5090   -1.9160  -16.7030 C   0  0  0  0  0  0  0  0  0  0  0  0
   -2.4900   -1.1290  -17.3380 C   0  0  0  0  0  0  0  0  0  0  0  0
   -8.2180   -3.1740  -16.4370 C   0  0  0  0  0  0  0  0  0  0  0  0
   -4.7360   -1.7640  -17.6150 C   0  0  0  0  0  0  0  0  0  0  0  0
   -6.3600   -3.1990  -15.3650 C   0  0  0  0  0  0  0  0  0  0  0  0
   -6.3840   -0.8790  -19.7090 C   0  0  0  0  0  0  0  0  0  0  0  0
   -4.2050   -0.9760  -18.8070 C   0  0  0  0  0  0  0  0  0  0  0  0
   -9.3160   -3.0030  -17.4480 C   0  0  0  0  0  0  0  0  0  0  0  0
   -2.8540   -0.7410  -18.6350 N   0  0  0  0  0  0  0  0  0  0  0  0
   -7.2590   -3.8140  -14.6940 N   0  0  0  0  0  0  0  0  0  0  0  0
   -3.2720   -2.4460  -15.5090 C   0  0  0  0  0  0  0  0  0  0  0  0
   -5.0890   -0.5960  -19.7700 N   0  0  0  0  0  0  0  0  0  0  0  0
   -6.1560   -2.0320  -17.6130 C   0  0  0  0  0  0  0  0  0  0  0  0
   -1.0860   -1.3420  -15.3960 C   0  0  0  0  0  0  0  0  0  0  0  0
   -6.8540   -2.7040  -16.5530 C   0  0  0  0  0  0  0  0  0  0  0  0
   -8.3680   -3.8810  -15.3270 N   0  0  0  0  0  0  0  0  0  0  0  0
   -6.8620   -1.5670  -18.6900 N   0  0  0  0  0  0  0  0  0  0  0  0
   -2.1100   -2.1510  -14.8500 C   0  0  0  0  0  0  0  0  0  0  0  0
  1 15  4  0
  2 12  4  0
  3  1  4  0
  3  2  4  0
  4 17  4  0
  5 14  4  0
  5  2  4  0
  6 11  4  0
  7 18  4  0
  8 10  4  0
  8  5  1  0
  9  4  1  0
 10  3  4  0
 12 19  4  0
 13  7  4  0
 13  8  4  0
 14 16  1  0
 15 19  4  0
 16  4  4  0
 16  6  4  0
 17 11  4  0
 18 14  4  0
M  END
$$$$

     RDKit          3D

 19 22  0  0  0  0  0  0  0  0999 V2000
   -1.4250   -0.7760  -16.9890 C   0  0  0  0  0  0  0  0  0  0  0  0
   -3.6850   -1.7490  -16.9300 C   0  0  0  0  0  0  0  0  0  0  0  0
   -2.6600   -1.0520  -17.5660 C   0  0  0  0  0  0  0  0  0  0  0  0
   -8.2150   -2.7840  -16.5360 C   0  0  0  0  0  0  0  0  0  0  0  0
   -4.8410   -1.6520  -17.7460 C   0  0  0  0  0  0  0  0  0  0  0  0
   -6.1250   -3.1340  -15.7110 N   0  0  0  0  0  0  0  0  0  0  0  0
   -6.4910   -0.9220  -19.8340 C   0  0  0  0  0  0  0  0  0  0  0  0
   -4.4260   -0.9230  -18.8200 C   0  0  0  0  0  0  0  0  0  0  0  0
   -9.2580   -2.4190  -17.2490 O   0  0  0  0  0  0  0  0  0  0  0  0
   -3.2130   -0.6680  -18.7000 N   0  0  0  0  0  0  0  0  0  0  0  0
   -7.0190   -3.8390  -15.0980 C   0  0  0  0  0  0  0  0  0  0  0  0
   -3.3560   -2.4660  -15.7430 C   0  0  0  0  0  0  0  0  0  0  0  0
   -5.2050   -0.5850  -19.8890 C   0  0  0  0  0  0  0  0  0  0  0  0
   -6.1940   -1.9540  -17.7120 C   0  0  0  0  0  0  0  0  0  0  0  0
   -1.1200   -1.4180  -15.8260 C   0  0  0  0  0  0  0  0  0  0  0  0
   -6.8750   -2.5900  -16.7200 N   0  0  0  0  0  0  0  0  0  0  0  0
   -8.3370   -3.6070  -15.5500 N   0  0  0  0  0  0  0  0  0  0  0  0
   -7.0020   -1.5660  -18.7800 C   0  0  0  0  0  0  0  0  0  0  0  0
   -2.1210   -2.2040  -15.1990 C   0  0  0  0  0  0  0  0  0  0  0  0
  1 15  1  0
  2 12  1  0
  3  1  2  0
  3  2  1  0
  4 17  4  0
  5 14  4  0
  5  2  2  0
  6 11  4  0
  7 18  4  0
  8 10  2  0
  8  5  4  0
  9  4  2  0
 10  3  1  0
 12 19  2  0
 13  7  4  0
 13  8  4  0
 14 16  1  0
 15 19  1  0
 16  4  4  0
 16  6  4  0
 17 11  4  0
 18 14  4  0
M  END
$$$$

     RDKit          3D

 19 22  0  0  0  0  0  0  0  0999 V2000
   -1.4230   -1.2260  -17.4010 C   0  0  0  0  0  0  0  0  0  0  0  0
   -3.8150   -1.7930  -17.1820 C   0  0  0  0  0  0  0  0  0  0  0  0
   -2.7690   -1.2010  -17.8050 C   0  0  0  0  0  0  0  0  0  0  0  0
   -8.2410   -2.7720  -16.4020 C   0  0  0  0  0  0  0  0  0  0  0  0
   -4.9380   -1.5880  -17.8750 N   0  0  0  0  0  0  0  0  0  0  0  0
   -6.2020   -3.0780  -15.5920 C   0  0  0  0  0  0  0  0  0  0  0  0
   -6.7340   -0.8750  -19.7790 N   0  0  0  0  0  0  0  0  0  0  0  0
   -4.5470   -0.9240  -19.0190 C   0  0  0  0  0  0  0  0  0  0  0  0
   -9.4260   -2.3120  -17.1430 C   0  0  0  0  0  0  0  0  0  0  0  0
   -3.2180   -0.6890  -19.0390 N   0  0  0  0  0  0  0  0  0  0  0  0
   -7.0970   -3.8100  -14.8410 C   0  0  0  0  0  0  0  0  0  0  0  0
   -3.4620   -2.4720  -16.0600 C   0  0  0  0  0  0  0  0  0  0  0  0
   -5.4180   -0.6140  -19.9300 C   0  0  0  0  0  0  0  0  0  0  0  0
   -6.3140   -1.8240  -17.7150 C   0  0  0  0  0  0  0  0  0  0  0  0
   -1.1440   -1.7970  -16.2100 C   0  0  0  0  0  0  0  0  0  0  0  0
   -6.9000   -2.4830  -16.6260 C   0  0  0  0  0  0  0  0  0  0  0  0
   -8.3630   -3.6000  -15.3330 N   0  0  0  0  0  0  0  0  0  0  0  0
   -7.1330   -1.4220  -18.7150 C   0  0  0  0  0  0  0  0  0  0  0  0
   -2.1840   -2.4230  -15.5110 C   0  0  0  0  0  0  0  0  0  0  0  0
  1 15  4  0
  2 12  4  0
  3  1  4  0
  3  2  4  0
  4 17  4  0
  5 14  4  0
  5  2  4  0
  6 11  4  0
  7 18  4  0
  8  5  4  0
  9  4  1  0
 10  8  4  0
 10  3  4  0
 12 19  4  0
 13  7  4  0
 13  8  4  0
 14 16  1  0
 15 19  4  0
 16  4  4  0
 16  6  4  0
 17 11  4  0
 18 14  4  0
M  END
$$$$

     RDKit          3D

 19 22  0  0  0  0  0  0  0  0999 V2000
   -1.6620   -1.0250  -16.9560 C   0  0  0  0  0  0  0  0  0  0  0  0
   -3.9870   -1.8580  -16.9670 C   0  0  0  0  0  0  0  0  0  0  0  0
   -2.8580   -1.2760  -17.5710 C   0  0  0  0  0  0  0  0  0  0  0  0
   -8.5990   -2.7830  -16.5640 C   0  0  0  0  0  0  0  0  0  0  0  0
   -5.0770   -1.6620  -17.8060 C   0  0  0  0  0  0  0  0  0  0  0  0
   -6.6490   -2.8790  -15.5630 N   0  0  0  0  0  0  0  0  0  0  0  0
   -6.7140   -0.7550  -19.8560 C   0  0  0  0  0  0  0  0  0  0  0  0
   -4.5240   -1.0390  -18.9550 C   0  0  0  0  0  0  0  0  0  0  0  0
   -9.6510   -2.6270  -17.5540 C   0  0  0  0  0  0  0  0  0  0  0  0
   -3.1230   -0.9990  -18.7750 N   0  0  0  0  0  0  0  0  0  0  0  0
   -7.5750   -3.3090  -14.7720 N   0  0  0  0  0  0  0  0  0  0  0  0
   -3.8240   -2.3980  -15.6940 C   0  0  0  0  0  0  0  0  0  0  0  0
   -5.3770   -0.5980  -19.9710 C   0  0  0  0  0  0  0  0  0  0  0  0
   -6.5520   -1.7840  -17.7630 C   0  0  0  0  0  0  0  0  0  0  0  0
   -1.5450   -1.6830  -15.6250 C   0  0  0  0  0  0  0  0  0  0  0  0
   -7.2080   -2.4680  -16.7300 C   0  0  0  0  0  0  0  0  0  0  0  0
   -8.8610   -3.2600  -15.3190 N   0  0  0  0  0  0  0  0  0  0  0  0
   -7.2560   -1.3350  -18.8050 N   0  0  0  0  0  0  0  0  0  0  0  0
   -2.6140   -2.3080  -15.0930 C   0  0  0  0  0  0  0  0  0  0  0  0
  1 15  4  0
  2 12  4  0
  3  2  4  0
  3  1  4  0
  4 17  4  0
  5 14  4  0
  5  2  4  0
  6 11  4  0
  7 18  4  0
  8 10  4  0
  8  5  4  0
  9  4  1  0
 10  3  4  0
 12 19  4  0
 13  7  4  0
 13  8  4  0
 14 16  1  0
 15 19  4  0
 16  4  4  0
 16  6  4  0
 17 11  4  0
 18 14  4  0
M  END
$$$$

     RDKit          3D

 19 22  0  0  0  0  0  0  0  0999 V2000
   -1.2060   -1.2400  -17.5590 C   0  0  0  0  0  0  0  0  0  0  0  0
   -3.6840   -1.7070  -17.1860 C   0  0  0  0  0  0  0  0  0  0  0  0
   -2.6050   -1.1620  -18.0280 C   0  0  0  0  0  0  0  0  0  0  0  0
   -8.3210   -2.6140  -16.4250 C   0  0  0  0  0  0  0  0  0  0  0  0
   -4.8380   -1.5840  -17.9050 C   0  0  0  0  0  0  0  0  0  0  0  0
   -6.4070   -3.2340  -15.5870 C   0  0  0  0  0  0  0  0  0  0  0  0
   -6.6950   -0.8430  -19.9570 C   0  0  0  0  0  0  0  0  0  0  0  0
   -4.3770   -0.9940  -19.1750 C   0  0  0  0  0  0  0  0  0  0  0  0
   -9.3620   -2.1440  -17.0230 N   0  0  0  0  0  0  0  0  0  0  0  0
   -3.0640   -0.7790  -19.2080 N   0  0  0  0  0  0  0  0  0  0  0  0
   -7.3720   -3.8520  -14.9040 N   0  0  0  0  0  0  0  0  0  0  0  0
   -3.3670   -2.2280  -15.7160 C   0  0  0  0  0  0  0  0  0  0  0  0
   -5.2870   -0.6640  -20.1090 C   0  0  0  0  0  0  0  0  0  0  0  0
   -6.2080   -1.8060  -17.7510 C   0  0  0  0  0  0  0  0  0  0  0  0
   -0.9630   -1.8790  -16.2000 C   0  0  0  0  0  0  0  0  0  0  0  0
   -6.9290   -2.4830  -16.6560 C   0  0  0  0  0  0  0  0  0  0  0  0
   -8.5790   -3.4780  -15.4780 N   0  0  0  0  0  0  0  0  0  0  0  0
   -7.0720   -1.4920  -18.7360 N   0  0  0  0  0  0  0  0  0  0  0  0
   -2.0700   -1.9510  -15.1940 C   0  0  0  0  0  0  0  0  0  0  0  0
  1 15  1  0
  2 12  1  0
  3  1  2  0
  3  2  1  0
  4 17  4  0
  5 14  4  0
  5  2  2  0
  6 11  4  0
  7 18  4  0
  8  5  4  0
  9  4  1  0
 10  8  2  0
 10  3  1  0
 12 19  2  0
 13  7  4  0
 13  8  4  0
 14 16  1  0
 15 19  1  0
 16  4  4  0
 16  6  4  0
 17 11  4  0
 18 14  4  0
M  END
$$$$

     RDKit          3D

 19 22  0  0  0  0  0  0  0  0999 V2000
   -1.6760   -1.0870  -16.7770 C   0  0  0  0  0  0  0  0  0  0  0  0
   -3.9190   -1.9460  -17.2090 C   0  0  0  0  0  0  0  0  0  0  0  0
   -2.7850   -1.2520  -17.5920 C   0  0  0  0  0  0  0  0  0  0  0  0
   -8.4040   -2.8090  -16.3820 C   0  0  0  0  0  0  0  0  0  0  0  0
   -5.0880   -1.7050  -18.0420 C   0  0  0  0  0  0  0  0  0  0  0  0
   -6.3570   -3.2110  -15.5840 N   0  0  0  0  0  0  0  0  0  0  0  0
   -6.9510   -0.9580  -20.0220 C   0  0  0  0  0  0  0  0  0  0  0  0
   -4.7390   -0.9740  -19.2060 C   0  0  0  0  0  0  0  0  0  0  0  0
   -9.6010   -2.3880  -17.1380 C   0  0  0  0  0  0  0  0  0  0  0  0
   -3.0720   -0.5020  -19.1090 S   0  0  0  0  0  0  0  0  0  0  0  0
   -7.2500   -3.8950  -14.7630 N   0  0  0  0  0  0  0  0  0  0  0  0
   -3.5420   -3.1890  -16.5420 C   0  0  0  0  0  0  0  0  0  0  0  0
   -5.6300   -0.6060  -20.1470 N   0  0  0  0  0  0  0  0  0  0  0  0
   -6.4930   -2.0180  -17.8630 C   0  0  0  0  0  0  0  0  0  0  0  0
   -1.6330   -1.8000  -15.5820 C   0  0  0  0  0  0  0  0  0  0  0  0
   -7.0890   -2.6230  -16.7040 C   0  0  0  0  0  0  0  0  0  0  0  0
   -8.5010   -3.6100  -15.3130 N   0  0  0  0  0  0  0  0  0  0  0  0
   -7.4010   -1.6560  -18.9230 C   0  0  0  0  0  0  0  0  0  0  0  0
   -2.5670   -2.9060  -15.3840 C   0  0  0  0  0  0  0  0  0  0  0  0
  1 15  2  0
  2 12  1  0
  3  2  4  0
  3  1  1  0
  4 17  4  0
  5 14  4  0
  5  2  4  0
  6 11  4  0
  7 18  4  0
  8 10  4  0
  8  5  4  0
  9  4  1  0
 10  3  4  0
 12 19  1  0
 13  7  4  0
 13  8  4  0
 14 16  1  0
 15 19  1  0
 16  4  4  0
 16  6  4  0
 17 11  4  0
 18 14  4  0
M  END
$$$$

     RDKit          3D

 19 21  0  0  0  0  0  0  0  0999 V2000
   -1.7660   -0.9820  -16.3820 C   0  0  0  0  0  0  0  0  0  0  0  0
   -3.8180   -1.9090  -16.9920 N   0  0  0  0  0  0  0  0  0  0  0  0
   -2.4770   -1.8250  -17.4150 C   0  0  0  0  0  0  0  0  0  0  0  0
   -8.2830   -3.0400  -16.5370 C   0  0  0  0  0  0  0  0  0  0  0  0
   -4.7860   -1.5940  -17.8930 C   0  0  0  0  0  0  0  0  0  0  0  0
   -6.3020   -3.1770  -15.4750 C   0  0  0  0  0  0  0  0  0  0  0  0
   -6.6430   -0.9770  -19.9600 N   0  0  0  0  0  0  0  0  0  0  0  0
   -4.4350   -0.8270  -19.0430 C   0  0  0  0  0  0  0  0  0  0  0  0
   -9.6530   -2.6120  -17.5020 Cl  0  0  0  0  0  0  0  0  0  0  0  0
   -3.1040   -0.3590  -19.1940 N   0  0  0  0  0  0  0  0  0  0  0  0
   -7.2990   -3.7890  -14.8480 N   0  0  0  0  0  0  0  0  0  0  0  0
   -3.8850   -2.1270  -15.4910 C   0  0  0  0  0  0  0  0  0  0  0  0
   -5.3770   -0.5920  -20.0420 C   0  0  0  0  0  0  0  0  0  0  0  0
   -6.2200   -1.9520  -17.8040 C   0  0  0  0  0  0  0  0  0  0  0  0
   -1.3960   -1.9370  -15.2730 C   0  0  0  0  0  0  0  0  0  0  0  0
   -6.8970   -2.6540  -16.6670 C   0  0  0  0  0  0  0  0  0  0  0  0
   -8.5160   -3.6590  -15.3830 N   0  0  0  0  0  0  0  0  0  0  0  0
   -7.1290   -1.5700  -18.8520 C   0  0  0  0  0  0  0  0  0  0  0  0
   -2.5780   -2.8290  -14.9950 C   0  0  0  0  0  0  0  0  0  0  0  0
  1 15  1  0
  2 12  1  0
  3  2  1  0
  3  1  1  0
  4 17  4  0
  5 14  4  0
  5  2  1  0
  6 11  4  0
  7 18  4  0
  8  5  4  0
  9  4  1  0
 10  8  1  0
 12 19  1  0
 13  7  4  0
 13  8  4  0
 14 16  1  0
 15 19  1  0
 16  4  4  0
 16  6  4  0
 17 11  4  0
 18 14  4  0
M  END
$$$$

     RDKit          3D

 19 22  0  0  0  0  0  0  0  0999 V2000
   -1.1110   -1.0430  -16.7190 C   0  0  0  0  0  0  0  0  0  0  0  0
   -3.4200   -1.7660  -16.7140 C   0  0  0  0  0  0  0  0  0  0  0  0
   -2.3840   -1.1890  -17.3600 C   0  0  0  0  0  0  0  0  0  0  0  0
   -8.0380   -2.8880  -16.4750 C   0  0  0  0  0  0  0  0  0  0  0  0
   -4.5800   -1.5370  -17.5790 C   0  0  0  0  0  0  0  0  0  0  0  0
   -6.0980   -3.1200  -15.4090 C   0  0  0  0  0  0  0  0  0  0  0  0
   -6.2370   -0.7950  -19.6530 N   0  0  0  0  0  0  0  0  0  0  0  0
   -4.0670   -0.9150  -18.6730 C   0  0  0  0  0  0  0  0  0  0  0  0
   -9.1170   -2.5950  -17.2440 C   0  0  0  0  0  0  0  0  0  0  0  0
   -2.7930   -0.7270  -18.5260 N   0  0  0  0  0  0  0  0  0  0  0  0
   -7.0840   -3.7600  -14.8150 N   0  0  0  0  0  0  0  0  0  0  0  0
   -3.2660   -2.3670  -15.4760 C   0  0  0  0  0  0  0  0  0  0  0  0
   -4.9220   -0.5300  -19.7040 C   0  0  0  0  0  0  0  0  0  0  0  0
   -5.9610   -1.8500  -17.5600 C   0  0  0  0  0  0  0  0  0  0  0  0
   -0.9280   -1.6370  -15.5090 C   0  0  0  0  0  0  0  0  0  0  0  0
   -6.6680   -2.5670  -16.5420 C   0  0  0  0  0  0  0  0  0  0  0  0
   -8.1590   -3.5890  -15.3700 N   0  0  0  0  0  0  0  0  0  0  0  0
   -6.7610   -1.4410  -18.6000 N   0  0  0  0  0  0  0  0  0  0  0  0
   -1.9390   -2.2850  -14.9570 C   0  0  0  0  0  0  0  0  0  0  0  0
  1 15  1  0
  2 12  1  0
  3  1  2  0
  3  2  1  0
  4 17  4  0
  5 14  4  0
  5  2  2  0
  6 11  4  0
  7 18  4  0
  8 10  2  0
  8  5  4  0
  9  4  1  0
 10  3  1  0
 12 19  2  0
 13  7  4  0
 13  8  4  0
 14 16  1  0
 15 19  1  0
 16  4  4  0
 16  6  4  0
 17 11  4  0
 18 14  4  0
M  END
$$$$

     RDKit          3D

 19 22  0  0  0  0  0  0  0  0999 V2000
   -1.3740   -1.0330  -16.8790 C   0  0  0  0  0  0  0  0  0  0  0  0
   -3.7000   -1.7540  -16.8710 C   0  0  0  0  0  0  0  0  0  0  0  0
   -2.6170   -1.1520  -17.5050 C   0  0  0  0  0  0  0  0  0  0  0  0
   -8.2200   -3.2610  -16.5070 C   0  0  0  0  0  0  0  0  0  0  0  0
   -4.8290   -1.5990  -17.6510 C   0  0  0  0  0  0  0  0  0  0  0  0
   -6.2490   -3.2380  -15.3960 C   0  0  0  0  0  0  0  0  0  0  0  0
   -6.5120   -0.7480  -19.6680 C   0  0  0  0  0  0  0  0  0  0  0  0
   -4.3810   -0.9190  -18.8910 C   0  0  0  0  0  0  0  0  0  0  0  0
   -9.1280   -2.9600  -17.2810 O   0  0  0  0  0  0  0  0  0  0  0  0
   -2.9850   -0.7330  -18.7550 N   0  0  0  0  0  0  0  0  0  0  0  0
   -7.1510   -3.9960  -14.7040 N   0  0  0  0  0  0  0  0  0  0  0  0
   -3.4760   -2.3490  -15.5840 C   0  0  0  0  0  0  0  0  0  0  0  0
   -5.2330   -0.4780  -19.8380 C   0  0  0  0  0  0  0  0  0  0  0  0
   -6.1970   -1.9180  -17.6220 C   0  0  0  0  0  0  0  0  0  0  0  0
   -1.1990   -1.5360  -15.6650 C   0  0  0  0  0  0  0  0  0  0  0  0
   -6.8220   -2.7790  -16.5740 C   0  0  0  0  0  0  0  0  0  0  0  0
   -8.3690   -3.9790  -15.4050 N   0  0  0  0  0  0  0  0  0  0  0  0
   -6.9550   -1.4190  -18.5910 C   0  0  0  0  0  0  0  0  0  0  0  0
   -2.2410   -2.2230  -15.0050 C   0  0  0  0  0  0  0  0  0  0  0  0
  1 15  1  0
  2 12  1  0
  3  1  2  0
  3  2  1  0
  4 17  1  0
  5 14  4  0
  5  2  2  0
  6 11  2  0
  7 18  4  0
  8 10  2  0
  8  5  4  0
  9  4  2  0
 10  3  1  0
 12 19  2  0
 13  7  4  0
 13  8  4  0
 15 19  1  0
 16 14  1  0
 16  4  1  0
 16  6  1  0
 17 11  1  0
 18 14  4  0
M  END
$$$$

     RDKit          3D

 19 22  0  0  0  0  0  0  0  0999 V2000
   -1.4300   -0.9770  -17.1620 C   0  0  0  0  0  0  0  0  0  0  0  0
   -3.7000   -1.8610  -17.1260 C   0  0  0  0  0  0  0  0  0  0  0  0
   -2.6880   -1.1250  -17.7380 C   0  0  0  0  0  0  0  0  0  0  0  0
   -8.3830   -2.9370  -16.5400 C   0  0  0  0  0  0  0  0  0  0  0  0
   -4.9560   -1.6340  -17.9360 C   0  0  0  0  0  0  0  0  0  0  0  0
   -6.3890   -3.1360  -15.5950 O   0  0  0  0  0  0  0  0  0  0  0  0
   -6.6630   -0.9520  -20.0950 C   0  0  0  0  0  0  0  0  0  0  0  0
   -4.4430   -0.8870  -19.0490 C   0  0  0  0  0  0  0  0  0  0  0  0
   -9.5640   -2.4710  -17.2330 C   0  0  0  0  0  0  0  0  0  0  0  0
   -3.1080   -0.6200  -18.9710 N   0  0  0  0  0  0  0  0  0  0  0  0
   -7.2210   -3.8600  -14.9130 O   0  0  0  0  0  0  0  0  0  0  0  0
   -3.3140   -2.5650  -15.9410 C   0  0  0  0  0  0  0  0  0  0  0  0
   -5.2670   -0.5740  -20.1610 C   0  0  0  0  0  0  0  0  0  0  0  0
   -6.3310   -1.9280  -17.8040 C   0  0  0  0  0  0  0  0  0  0  0  0
   -1.0960   -1.6370  -15.9630 C   0  0  0  0  0  0  0  0  0  0  0  0
   -7.0330   -2.5910  -16.7190 C   0  0  0  0  0  0  0  0  0  0  0  0
   -8.4820   -3.8120  -15.5240 N   0  0  0  0  0  0  0  0  0  0  0  0
   -7.1700   -1.5830  -18.9270 C   0  0  0  0  0  0  0  0  0  0  0  0
   -2.1220   -2.4160  -15.3570 C   0  0  0  0  0  0  0  0  0  0  0  0
  1 15  1  0
  2 12  1  0
  3  1  2  0
  3  2  1  0
  4 17  2  0
  5 14  4  0
  5  2  2  0
  6 11  1  0
  7 18  4  0
  8 10  2  0
  8  5  4  0
  9  4  1  0
 10  3  1  0
 12 19  2  0
 13  7  4  0
 13  8  4  0
 15 19  1  0
 16 14  1  0
 16  4  1  0
 16  6  1  0
 17 11  1  0
 18 14  4  0
M  END
$$$$

     RDKit          3D

 19 22  0  0  0  0  0  0  0  0999 V2000
   -1.4530   -0.6910  -17.0890 C   0  0  0  0  0  0  0  0  0  0  0  0
   -3.7390   -1.6850  -17.0390 C   0  0  0  0  0  0  0  0  0  0  0  0
   -2.6810   -1.0600  -17.6420 C   0  0  0  0  0  0  0  0  0  0  0  0
   -8.3120   -2.7090  -16.3390 C   0  0  0  0  0  0  0  0  0  0  0  0
   -4.9800   -1.5240  -17.8520 C   0  0  0  0  0  0  0  0  0  0  0  0
   -6.2250   -3.2390  -15.7880 N   0  0  0  0  0  0  0  0  0  0  0  0
   -6.7020   -0.8130  -19.9430 C   0  0  0  0  0  0  0  0  0  0  0  0
   -4.4880   -0.9010  -19.0110 C   0  0  0  0  0  0  0  0  0  0  0  0
   -9.5460   -2.0960  -16.9180 C   0  0  0  0  0  0  0  0  0  0  0  0
   -3.1280   -0.6740  -18.8620 N   0  0  0  0  0  0  0  0  0  0  0  0
   -7.0510   -3.8290  -14.9790 C   0  0  0  0  0  0  0  0  0  0  0  0
   -3.3730   -2.4690  -15.9310 C   0  0  0  0  0  0  0  0  0  0  0  0
   -5.3470   -0.5340  -20.0780 C   0  0  0  0  0  0  0  0  0  0  0  0
   -6.4110   -1.8180  -17.7310 C   0  0  0  0  0  0  0  0  0  0  0  0
   -1.0550   -1.4710  -15.8900 C   0  0  0  0  0  0  0  0  0  0  0  0
   -6.9790   -2.5140  -16.6990 C   0  0  0  0  0  0  0  0  0  0  0  0
   -8.3400   -3.5880  -15.2920 N   0  0  0  0  0  0  0  0  0  0  0  0
   -7.2160   -1.4030  -18.7690 C   0  0  0  0  0  0  0  0  0  0  0  0
   -1.9700   -2.3860  -15.3290 C   0  0  0  0  0  0  0  0  0  0  0  0
  1 15  1  0
  2 12  1  0
  3  1  1  0
  3  2  1  0
  4 17  4  0
  5 14  4  0
  5  2  2  0
  6 11  4  0
  7 18  4  0
  8 10  2  0
  8  5  4  0
  9  4  1  0
 10  3  1  0
 12 19  2  0
 13  7  4  0
 13  8  4  0
 14 16  1  0
 15 19  1  0
 16  4  4  0
 16  6  4  0
 17 11  4  0
 18 14  4  0
M  END
$$$$

     RDKit          3D

 19 22  0  0  0  0  0  0  0  0999 V2000
   -1.5690   -1.1750  -16.7650 C   0  0  0  0  0  0  0  0  0  0  0  0
   -3.9360   -1.9680  -16.8810 C   0  0  0  0  0  0  0  0  0  0  0  0
   -2.7630   -1.6360  -17.5350 C   0  0  0  0  0  0  0  0  0  0  0  0
   -8.6790   -2.7070  -16.5010 C   0  0  0  0  0  0  0  0  0  0  0  0
   -5.0910   -1.6370  -17.8250 C   0  0  0  0  0  0  0  0  0  0  0  0
   -6.6890   -2.9510  -15.5080 N   0  0  0  0  0  0  0  0  0  0  0  0
   -6.7270   -0.7530  -19.9120 C   0  0  0  0  0  0  0  0  0  0  0  0
   -4.4900   -0.9550  -18.9460 C   0  0  0  0  0  0  0  0  0  0  0  0
   -9.5710   -2.4310  -17.3190 O   0  0  0  0  0  0  0  0  0  0  0  0
   -3.1680   -0.8960  -18.7100 N   0  0  0  0  0  0  0  0  0  0  0  0
   -7.6940   -3.3940  -14.7590 O   0  0  0  0  0  0  0  0  0  0  0  0
   -3.9220   -2.9150  -15.7310 C   0  0  0  0  0  0  0  0  0  0  0  0
   -5.3720   -0.4920  -19.9340 C   0  0  0  0  0  0  0  0  0  0  0  0
   -6.5450   -1.8560  -17.7950 C   0  0  0  0  0  0  0  0  0  0  0  0
   -1.4720   -1.9400  -15.4820 C   0  0  0  0  0  0  0  0  0  0  0  0
   -7.1670   -2.4670  -16.6320 C   0  0  0  0  0  0  0  0  0  0  0  0
   -8.9660   -3.3080  -15.2940 N   0  0  0  0  0  0  0  0  0  0  0  0
   -7.3110   -1.4500  -18.8770 C   0  0  0  0  0  0  0  0  0  0  0  0
   -2.6520   -2.6580  -14.8020 C   0  0  0  0  0  0  0  0  0  0  0  0
  1 15  1  0
  2 12  1  0
  3  2  1  0
  3  1  1  0
  4 17  4  0
  5 14  4  0
  5  2  2  0
  6 11  4  0
  7 18  4  0
  8 10  2  0
  8  5  4  0
  9  4  2  0
 10  3  1  0
 12 19  1  0
 13  7  4  0
 13  8  4  0
 14 16  1  0
 15 19  1  0
 16  4  4  0
 16  6  4  0
 17 11  4  0
 18 14  4  0
M  END
$$$$

     RDKit          3D

 19 22  0  0  0  0  0  0  0  0999 V2000
   -1.3090   -1.5790  -17.5810 C   0  0  0  0  0  0  0  0  0  0  0  0
   -3.6690   -1.8530  -17.1440 N   0  0  0  0  0  0  0  0  0  0  0  0
   -2.6290   -1.3560  -17.9610 C   0  0  0  0  0  0  0  0  0  0  0  0
   -8.2700   -2.6940  -16.2410 C   0  0  0  0  0  0  0  0  0  0  0  0
   -4.8740   -1.6460  -17.8650 C   0  0  0  0  0  0  0  0  0  0  0  0
   -6.2080   -3.2230  -15.3700 C   0  0  0  0  0  0  0  0  0  0  0  0
   -6.6930   -0.8490  -19.8100 C   0  0  0  0  0  0  0  0  0  0  0  0
   -4.4830   -0.9680  -19.0180 C   0  0  0  0  0  0  0  0  0  0  0  0
   -9.3730   -2.2780  -16.9750 N   0  0  0  0  0  0  0  0  0  0  0  0
   -3.1660   -0.8620  -19.0660 N   0  0  0  0  0  0  0  0  0  0  0  0
   -7.2350   -3.6710  -14.5360 N   0  0  0  0  0  0  0  0  0  0  0  0
   -3.3800   -2.2600  -15.8710 C   0  0  0  0  0  0  0  0  0  0  0  0
   -5.4110   -0.5220  -19.9590 C   0  0  0  0  0  0  0  0  0  0  0  0
   -6.2350   -1.9760  -17.6180 C   0  0  0  0  0  0  0  0  0  0  0  0
   -1.0370   -1.7690  -16.2690 C   0  0  0  0  0  0  0  0  0  0  0  0
   -6.8360   -2.5910  -16.4530 C   0  0  0  0  0  0  0  0  0  0  0  0
   -8.4450   -3.3310  -15.0830 N   0  0  0  0  0  0  0  0  0  0  0  0
   -6.9930   -1.4910  -18.7130 C   0  0  0  0  0  0  0  0  0  0  0  0
   -2.0320   -2.2610  -15.4670 C   0  0  0  0  0  0  0  0  0  0  0  0
  1 15  4  0
  2 12  4  0
  3  1  4  0
  3  2  4  0
  4 17  4  0
  5 14  4  0
  5  2  4  0
  6 11  4  0
  7 18  4  0
  8  5  4  0
  9  4  1  0
 10  8  4  0
 10  3  4  0
 12 19  4  0
 13  7  4  0
 13  8  4  0
 14 16  1  0
 15 19  4  0
 16  4  4  0
 16  6  4  0
 17 11  4  0
 18 14  4  0
M  END
$$$$

     RDKit          3D

 19 22  0  0  0  0  0  0  0  0999 V2000
   -1.5770   -1.1040  -16.9180 C   0  0  0  0  0  0  0  0  0  0  0  0
   -3.8790   -1.8720  -17.1010 C   0  0  0  0  0  0  0  0  0  0  0  0
   -2.7640   -1.2050  -17.5800 C   0  0  0  0  0  0  0  0  0  0  0  0
   -8.3330   -2.7980  -16.3770 C   0  0  0  0  0  0  0  0  0  0  0  0
   -5.0040   -1.6070  -17.9270 C   0  0  0  0  0  0  0  0  0  0  0  0
   -6.3020   -3.0670  -15.5900 N   0  0  0  0  0  0  0  0  0  0  0  0
   -6.7740   -0.8760  -19.9350 N   0  0  0  0  0  0  0  0  0  0  0  0
   -4.5280   -0.9190  -19.0230 C   0  0  0  0  0  0  0  0  0  0  0  0
   -9.7670   -2.3100  -17.1770 S   0  0  0  0  0  0  0  0  0  0  0  0
   -3.1650   -0.7240  -18.8680 C   0  0  0  0  0  0  0  0  0  0  0  0
   -7.2270   -3.6440  -14.7570 N   0  0  0  0  0  0  0  0  0  0  0  0
   -3.7120   -2.6920  -15.9280 C   0  0  0  0  0  0  0  0  0  0  0  0
   -5.4650   -0.6180  -20.0150 C   0  0  0  0  0  0  0  0  0  0  0  0
   -6.3530   -1.8860  -17.7140 C   0  0  0  0  0  0  0  0  0  0  0  0
   -1.5010   -1.9290  -15.7240 C   0  0  0  0  0  0  0  0  0  0  0  0
   -6.9910   -2.5170  -16.6320 C   0  0  0  0  0  0  0  0  0  0  0  0
   -8.4800   -3.5490  -15.2700 N   0  0  0  0  0  0  0  0  0  0  0  0
   -7.1630   -1.5090  -18.8030 C   0  0  0  0  0  0  0  0  0  0  0  0
   -2.5290   -2.6620  -15.2900 N   0  0  0  0  0  0  0  0  0  0  0  0
  1 15  1  0
  2 12  1  0
  3  2  1  0
  3  1  2  0
  4 17  1  0
  5 14  4  0
  5  2  2  0
  6 11  1  0
  7 18  4  0
  8 10  2  0
  8  5  4  0
  9  4  2  0
 10  3  1  0
 12 19  2  0
 13  7  4  0
 13  8  4  0
 14 16  1  0
 15 19  1  0
 16  4  1  0
 16  6  2  0
 17 11  2  0
 18 14  4  0
M  END
$$$$

     RDKit          3D

 19 22  0  0  0  0  0  0  0  0999 V2000
   -1.7140   -0.7070  -16.5000 C   0  0  0  0  0  0  0  0  0  0  0  0
   -4.0070   -1.7370  -16.9860 N   0  0  0  0  0  0  0  0  0  0  0  0
   -2.8590   -1.1280  -17.5080 C   0  0  0  0  0  0  0  0  0  0  0  0
   -8.5610   -3.1480  -16.7050 C   0  0  0  0  0  0  0  0  0  0  0  0
   -5.0960   -1.6010  -17.8130 C   0  0  0  0  0  0  0  0  0  0  0  0
   -6.5820   -2.9590  -15.5890 N   0  0  0  0  0  0  0  0  0  0  0  0
   -6.6510   -0.8460  -19.9030 C   0  0  0  0  0  0  0  0  0  0  0  0
   -4.4680   -1.0890  -18.9260 C   0  0  0  0  0  0  0  0  0  0  0  0
   -9.4920   -3.0540  -17.6560 N   0  0  0  0  0  0  0  0  0  0  0  0
   -3.0010   -0.8960  -18.9790 C   0  0  0  0  0  0  0  0  0  0  0  0
   -7.5100   -3.7070  -14.9430 N   0  0  0  0  0  0  0  0  0  0  0  0
   -3.9120   -2.2310  -15.6670 C   0  0  0  0  0  0  0  0  0  0  0  0
   -5.2830   -0.7050  -20.0400 C   0  0  0  0  0  0  0  0  0  0  0  0
   -6.4870   -1.8850  -17.8770 C   0  0  0  0  0  0  0  0  0  0  0  0
   -1.3220   -1.9440  -15.7590 C   0  0  0  0  0  0  0  0  0  0  0  0
   -7.2020   -2.5840  -16.8070 C   0  0  0  0  0  0  0  0  0  0  0  0
   -8.6400   -3.7770  -15.5350 N   0  0  0  0  0  0  0  0  0  0  0  0
   -7.2000   -1.3990  -18.8870 N   0  0  0  0  0  0  0  0  0  0  0  0
   -2.5010   -2.8270  -15.2610 C   0  0  0  0  0  0  0  0  0  0  0  0
  1 15  1  0
  2 12  1  0
  3 10  1  0
  3  2  1  0
  3  1  1  0
  4 17  4  0
  5  2  1  0
  6 11  4  0
  7 18  4  0
  8  5  4  0
  9  4  1  0
 10  8  1  0
 12 19  1  0
 13  7  4  0
 13  8  4  0
 14  5  4  0
 14 16  1  0
 15 19  1  0
 16  4  4  0
 16  6  4  0
 17 11  4  0
 18 14  4  0
M  END
$$$$

     RDKit          3D

 19 22  0  0  0  0  0  0  0  0999 V2000
   -1.1120   -0.9880  -16.6790 C   0  0  0  0  0  0  0  0  0  0  0  0
   -3.3750   -1.7530  -16.7890 C   0  0  0  0  0  0  0  0  0  0  0  0
   -2.3560   -0.9710  -17.2610 C   0  0  0  0  0  0  0  0  0  0  0  0
   -8.2250   -3.1030  -16.4640 C   0  0  0  0  0  0  0  0  0  0  0  0
   -4.6280   -1.6220  -17.5880 C   0  0  0  0  0  0  0  0  0  0  0  0
   -6.2440   -3.2210  -15.4050 C   0  0  0  0  0  0  0  0  0  0  0  0
   -6.2380   -0.9570  -19.8030 C   0  0  0  0  0  0  0  0  0  0  0  0
   -4.1120   -0.8950  -18.7100 C   0  0  0  0  0  0  0  0  0  0  0  0
   -9.3690   -2.8320  -17.3970 C   0  0  0  0  0  0  0  0  0  0  0  0
   -2.8320   -0.5430  -18.4490 N   0  0  0  0  0  0  0  0  0  0  0  0
   -7.2140   -3.9790  -14.7300 N   0  0  0  0  0  0  0  0  0  0  0  0
   -3.1730   -2.4130  -15.6620 C   0  0  0  0  0  0  0  0  0  0  0  0
   -4.9180   -0.5460  -19.8280 C   0  0  0  0  0  0  0  0  0  0  0  0
   -5.9820   -1.9540  -17.6310 C   0  0  0  0  0  0  0  0  0  0  0  0
   -0.9700   -1.6980  -15.5800 C   0  0  0  0  0  0  0  0  0  0  0  0
   -6.8460   -2.6910  -16.5380 C   0  0  0  0  0  0  0  0  0  0  0  0
   -8.4200   -3.9280  -15.4160 N   0  0  0  0  0  0  0  0  0  0  0  0
   -6.7410   -1.6240  -18.7270 C   0  0  0  0  0  0  0  0  0  0  0  0
   -1.9550   -2.4770  -15.0270 C   0  0  0  0  0  0  0  0  0  0  0  0
  1 15  1  0
  2 12  1  0
  3  2  1  0
  3  1  2  0
  4 17  4  0
  5  2  2  0
  6 11  4  0
  7 18  4  0
  8 10  2  0
  8  5  4  0
  9  4  1  0
 10  3  1  0
 12 19  2  0
 13  7  4  0
 13  8  4  0
 14  5  4  0
 14 16  1  0
 15 19  1  0
 16  4  4  0
 16  6  4  0
 17 11  4  0
 18 14  4  0
M  END
$$$$

     RDKit          3D

 19 22  0  0  0  0  0  0  0  0999 V2000
   -1.3140   -0.8510  -17.0870 C   0  0  0  0  0  0  0  0  0  0  0  0
   -3.5330   -1.7500  -16.8210 C   0  0  0  0  0  0  0  0  0  0  0  0
   -2.5820   -1.1150  -17.5680 C   0  0  0  0  0  0  0  0  0  0  0  0
   -8.2800   -3.3270  -16.4980 C   0  0  0  0  0  0  0  0  0  0  0  0
   -4.8520   -1.6950  -17.6810 C   0  0  0  0  0  0  0  0  0  0  0  0
   -6.3060   -3.2000  -15.3730 C   0  0  0  0  0  0  0  0  0  0  0  0
   -6.5120   -0.9310  -19.6910 C   0  0  0  0  0  0  0  0  0  0  0  0
   -4.4390   -0.9760  -18.7940 C   0  0  0  0  0  0  0  0  0  0  0  0
   -9.3150   -3.1150  -17.3560 N   0  0  0  0  0  0  0  0  0  0  0  0
   -3.1290   -0.7620  -18.7130 N   0  0  0  0  0  0  0  0  0  0  0  0
   -7.1810   -3.9480  -14.7310 N   0  0  0  0  0  0  0  0  0  0  0  0
   -3.2220   -2.3260  -15.6190 C   0  0  0  0  0  0  0  0  0  0  0  0
   -5.2420   -0.5870  -19.8160 N   0  0  0  0  0  0  0  0  0  0  0  0
   -6.2290   -2.0020  -17.6470 C   0  0  0  0  0  0  0  0  0  0  0  0
   -0.9780   -1.4550  -15.8050 C   0  0  0  0  0  0  0  0  0  0  0  0
   -6.9230   -2.7110  -16.6010 C   0  0  0  0  0  0  0  0  0  0  0  0
   -8.3370   -4.0500  -15.3700 N   0  0  0  0  0  0  0  0  0  0  0  0
   -7.0120   -1.6160  -18.7000 N   0  0  0  0  0  0  0  0  0  0  0  0
   -1.8900   -2.1810  -15.1260 C   0  0  0  0  0  0  0  0  0  0  0  0
  1 15  4  0
  2 12  4  0
  3  1  4  0
  3  2  4  0
  4 17  4  0
  5 14  4  0
  5  2  4  0
  6 11  4  0
  7 18  4  0
  8 10  4  0
  8  5  1  0
  9  4  1  0
 10  3  4  0
 12 19  4  0
 13  7  4  0
 13  8  4  0
 14 16  1  0
 15 19  4  0
 16  4  4  0
 16  6  4  0
 17 11  4  0
 18 14  4  0
M  END
$$$$

     RDKit          3D

 19 22  0  0  0  0  0  0  0  0999 V2000
   -1.4700   -1.0630  -17.2420 C   0  0  0  0  0  0  0  0  0  0  0  0
   -3.7140   -1.7730  -17.0560 C   0  0  0  0  0  0  0  0  0  0  0  0
   -2.7520   -1.2060  -17.6740 C   0  0  0  0  0  0  0  0  0  0  0  0
   -8.3620   -2.8370  -16.5170 N   0  0  0  0  0  0  0  0  0  0  0  0
   -4.9640   -1.6240  -17.7630 C   0  0  0  0  0  0  0  0  0  0  0  0
   -6.4830   -3.0060  -15.5050 N   0  0  0  0  0  0  0  0  0  0  0  0
   -6.6520   -0.7960  -19.8110 C   0  0  0  0  0  0  0  0  0  0  0  0
   -4.5700   -1.0100  -18.9620 C   0  0  0  0  0  0  0  0  0  0  0  0
   -9.5950   -2.4960  -17.3800 C   0  0  0  0  0  0  0  0  0  0  0  0
   -3.1870   -0.8030  -18.8330 N   0  0  0  0  0  0  0  0  0  0  0  0
   -7.4700   -3.5540  -14.8810 N   0  0  0  0  0  0  0  0  0  0  0  0
   -3.4320   -2.4200  -15.8440 C   0  0  0  0  0  0  0  0  0  0  0  0
   -5.3410   -0.6060  -20.0010 C   0  0  0  0  0  0  0  0  0  0  0  0
   -6.3830   -1.9420  -17.7370 C   0  0  0  0  0  0  0  0  0  0  0  0
   -1.1220   -1.6980  -16.0100 C   0  0  0  0  0  0  0  0  0  0  0  0
   -7.0280   -2.5230  -16.6440 C   0  0  0  0  0  0  0  0  0  0  0  0
   -8.5780   -3.4810  -15.4410 N   0  0  0  0  0  0  0  0  0  0  0  0
   -7.0750   -1.4240  -18.6990 C   0  0  0  0  0  0  0  0  0  0  0  0
   -2.1370   -2.3700  -15.3410 C   0  0  0  0  0  0  0  0  0  0  0  0
  1 15  1  0
  2 12  1  0
  3  1  2  0
  3  2  1  0
  4 17  4  0
  5 14  4  0
  5  2  2  0
  6 11  4  0
  7 18  4  0
  8 10  2  0
  8  5  4  0
  9  4  1  0
 10  3  1  0
 12 19  2  0
 13  7  4  0
 13  8  4  0
 14 16  1  0
 15 19  1  0
 16  4  4  0
 16  6  4  0
 17 11  4  0
 18 14  4  0
M  END
$$$$

     RDKit          3D

 19 22  0  0  0  0  0  0  0  0999 V2000
   -1.5380   -0.9070  -16.9270 C   0  0  0  0  0  0  0  0  0  0  0  0
   -3.7910   -1.8840  -17.0960 C   0  0  0  0  0  0  0  0  0  0  0  0
   -2.7440   -1.2010  -17.6650 C   0  0  0  0  0  0  0  0  0  0  0  0
   -8.3540   -2.6270  -16.5180 C   0  0  0  0  0  0  0  0  0  0  0  0
   -4.9400   -1.6170  -17.8340 C   0  0  0  0  0  0  0  0  0  0  0  0
   -6.4600   -2.9460  -15.5420 C   0  0  0  0  0  0  0  0  0  0  0  0
   -6.5750   -0.8860  -19.8170 N   0  0  0  0  0  0  0  0  0  0  0  0
   -4.5070   -0.9210  -18.8950 C   0  0  0  0  0  0  0  0  0  0  0  0
   -9.5620   -2.3610  -17.0970 N   0  0  0  0  0  0  0  0  0  0  0  0
   -3.1530   -0.6550  -18.7940 N   0  0  0  0  0  0  0  0  0  0  0  0
   -7.3740   -3.5900  -14.8410 N   0  0  0  0  0  0  0  0  0  0  0  0
   -3.6070   -2.6230  -16.0350 C   0  0  0  0  0  0  0  0  0  0  0  0
   -5.3780   -0.5860  -19.8910 C   0  0  0  0  0  0  0  0  0  0  0  0
   -6.3800   -1.8700  -17.7510 C   0  0  0  0  0  0  0  0  0  0  0  0
   -1.4040   -1.8010  -15.8440 C   0  0  0  0  0  0  0  0  0  0  0  0
   -7.0420   -2.4690  -16.6440 C   0  0  0  0  0  0  0  0  0  0  0  0
   -8.5900   -3.3890  -15.4380 O   0  0  0  0  0  0  0  0  0  0  0  0
   -7.1290   -1.5310  -18.7960 C   0  0  0  0  0  0  0  0  0  0  0  0
   -2.3220   -2.6500  -15.3830 C   0  0  0  0  0  0  0  0  0  0  0  0
  1 15  1  0
  2 12  1  0
  3  2  1  0
  3  1  2  0
  4 17  4  0
  5 14  4  0
  5  2  2  0
  6 11  4  0
  7 18  4  0
  8 10  2  0
  8  5  4  0
  9  4  1  0
 10  3  1  0
 12 19  2  0
 13  7  4  0
 13  8  4  0
 14 16  1  0
 15 19  1  0
 16  4  4  0
 16  6  4  0
 17 11  4  0
 18 14  4  0
M  END
$$$$

     RDKit          3D

 19 22  0  0  0  0  0  0  0  0999 V2000
   -1.3220   -1.1690  -16.7770 C   0  0  0  0  0  0  0  0  0  0  0  0
   -3.7430   -1.9260  -16.9770 C   0  0  0  0  0  0  0  0  0  0  0  0
   -2.5170   -1.3280  -17.5120 C   0  0  0  0  0  0  0  0  0  0  0  0
   -8.6060   -2.8490  -16.7630 C   0  0  0  0  0  0  0  0  0  0  0  0
   -4.9020   -1.5630  -17.8540 C   0  0  0  0  0  0  0  0  0  0  0  0
   -6.5790   -2.8360  -15.6620 N   0  0  0  0  0  0  0  0  0  0  0  0
   -6.5880   -0.7230  -20.0930 C   0  0  0  0  0  0  0  0  0  0  0  0
   -4.2930   -0.9210  -19.0010 C   0  0  0  0  0  0  0  0  0  0  0  0
   -9.6000   -2.7520  -17.6840 N   0  0  0  0  0  0  0  0  0  0  0  0
   -2.9600   -0.7320  -18.8730 C   0  0  0  0  0  0  0  0  0  0  0  0
   -7.7550   -3.4360  -14.9720 O   0  0  0  0  0  0  0  0  0  0  0  0
   -3.5430   -2.5590  -15.7240 C   0  0  0  0  0  0  0  0  0  0  0  0
   -5.1760   -0.5050  -20.2060 C   0  0  0  0  0  0  0  0  0  0  0  0
   -6.4050   -1.7090  -17.9190 C   0  0  0  0  0  0  0  0  0  0  0  0
   -1.2460   -1.8770  -15.5800 C   0  0  0  0  0  0  0  0  0  0  0  0
   -7.2250   -2.3660  -16.8470 C   0  0  0  0  0  0  0  0  0  0  0  0
   -8.8210   -3.5780  -15.7650 N   0  0  0  0  0  0  0  0  0  0  0  0
   -7.1590   -1.2530  -18.9280 N   0  0  0  0  0  0  0  0  0  0  0  0
   -2.3190   -2.4830  -15.0140 C   0  0  0  0  0  0  0  0  0  0  0  0
  1 15  1  0
  2 12  1  0
  3  2  1  0
  3  1  2  0
  4 17  1  0
  5  2  2  0
  6 11  1  0
  7 18  4  0
  8 10  2  0
  8  5  4  0
  9  4  1  0
 10  3  1  0
 12 19  2  0
 13  7  4  0
 13  8  4  0
 14  5  4  0
 14 16  1  0
 15 19  1  0
 16  4  2  0
 16  6  1  0
 17 11  1  0
 18 14  4  0
M  END
$$$$

     RDKit          3D

 19 22  0  0  0  0  0  0  0  0999 V2000
   -1.3270   -1.2190  -17.2040 C   0  0  0  0  0  0  0  0  0  0  0  0
   -3.6640   -1.6770  -17.1490 C   0  0  0  0  0  0  0  0  0  0  0  0
   -2.5830   -1.1800  -17.7440 C   0  0  0  0  0  0  0  0  0  0  0  0
   -8.3700   -2.9160  -16.4390 C   0  0  0  0  0  0  0  0  0  0  0  0
   -4.8660   -1.5750  -17.9180 C   0  0  0  0  0  0  0  0  0  0  0  0
   -6.3690   -2.9430  -15.5110 C   0  0  0  0  0  0  0  0  0  0  0  0
   -6.4960   -0.8350  -19.8900 C   0  0  0  0  0  0  0  0  0  0  0  0
   -4.3440   -0.9350  -19.0950 C   0  0  0  0  0  0  0  0  0  0  0  0
   -9.3380   -2.7440  -17.4120 N   0  0  0  0  0  0  0  0  0  0  0  0
   -2.9690   -0.7270  -18.9710 N   0  0  0  0  0  0  0  0  0  0  0  0
   -7.3300   -3.4860  -14.6940 O   0  0  0  0  0  0  0  0  0  0  0  0
   -3.4960   -2.2320  -15.8780 C   0  0  0  0  0  0  0  0  0  0  0  0
   -5.2020   -0.5750  -20.0810 N   0  0  0  0  0  0  0  0  0  0  0  0
   -6.2610   -1.9120  -17.8490 C   0  0  0  0  0  0  0  0  0  0  0  0
   -1.1220   -1.7580  -15.9520 C   0  0  0  0  0  0  0  0  0  0  0  0
   -6.9560   -2.5840  -16.7300 C   0  0  0  0  0  0  0  0  0  0  0  0
   -8.5870   -3.4230  -15.3100 N   0  0  0  0  0  0  0  0  0  0  0  0
   -7.0190   -1.4380  -18.8320 N   0  0  0  0  0  0  0  0  0  0  0  0
   -2.3080   -2.2720  -15.3000 C   0  0  0  0  0  0  0  0  0  0  0  0
  1 15  4  0
  2 12  4  0
  3  1  4  0
  3  2  4  0
  4 17  4  0
  5 14  4  0
  5  2  4  0
  6 11  4  0
  7 18  4  0
  8 10  4  0
  8  5  1  0
  9  4  1  0
 10  3  4  0
 12 19  4  0
 13  7  4  0
 13  8  4  0
 14 16  1  0
 15 19  4  0
 16  4  4  0
 16  6  4  0
 17 11  4  0
 18 14  4  0
M  END
$$$$

     RDKit          3D

 19 22  0  0  0  0  0  0  0  0999 V2000
   -1.1560   -0.8070  -17.4230 C   0  0  0  0  0  0  0  0  0  0  0  0
   -3.4590   -1.6850  -17.2260 C   0  0  0  0  0  0  0  0  0  0  0  0
   -2.4700   -1.0010  -17.9480 C   0  0  0  0  0  0  0  0  0  0  0  0
   -8.1860   -3.2300  -16.6060 C   0  0  0  0  0  0  0  0  0  0  0  0
   -4.7710   -1.5230  -17.9960 C   0  0  0  0  0  0  0  0  0  0  0  0
   -6.1850   -3.1120  -15.5910 N   0  0  0  0  0  0  0  0  0  0  0  0
   -6.7480   -0.8280  -19.9600 C   0  0  0  0  0  0  0  0  0  0  0  0
   -4.5280   -0.9040  -19.2780 C   0  0  0  0  0  0  0  0  0  0  0  0
   -9.1910   -3.0990  -17.3750 N   0  0  0  0  0  0  0  0  0  0  0  0
   -2.8160   -0.5860  -19.4410 S   0  0  0  0  0  0  0  0  0  0  0  0
   -7.0730   -3.8370  -14.7530 C   0  0  0  0  0  0  0  0  0  0  0  0
   -3.1690   -2.1950  -15.9780 C   0  0  0  0  0  0  0  0  0  0  0  0
   -5.3820   -0.5450  -20.1320 N   0  0  0  0  0  0  0  0  0  0  0  0
   -6.1790   -1.9330  -17.8050 C   0  0  0  0  0  0  0  0  0  0  0  0
   -0.8880   -1.3040  -16.1450 C   0  0  0  0  0  0  0  0  0  0  0  0
   -6.8380   -2.7340  -16.7110 C   0  0  0  0  0  0  0  0  0  0  0  0
   -8.2870   -3.9400  -15.4220 O   0  0  0  0  0  0  0  0  0  0  0  0
   -7.1980   -1.4940  -18.7950 C   0  0  0  0  0  0  0  0  0  0  0  0
   -1.9500   -1.9980  -15.4130 C   0  0  0  0  0  0  0  0  0  0  0  0
  1 15  4  0
  2 12  4  0
  3  1  4  0
  3  2  4  0
  4 17  4  0
  5 14  4  0
  5  2  4  0
  6 11  4  0
  7 18  4  0
  8  5  4  0
  9  4  1  0
 10  8  4  0
 10  3  4  0
 12 19  4  0
 13  7  4  0
 13  8  4  0
 14 16  1  0
 15 19  4  0
 16  4  4  0
 16  6  4  0
 17 11  4  0
 18 14  4  0
M  END
$$$$

     RDKit          3D

 19 22  0  0  0  0  0  0  0  0999 V2000
   -1.4870   -0.9780  -17.0630 C   0  0  0  0  0  0  0  0  0  0  0  0
   -3.7070   -2.0110  -16.9670 C   0  0  0  0  0  0  0  0  0  0  0  0
   -2.6900   -1.2800  -17.5900 C   0  0  0  0  0  0  0  0  0  0  0  0
   -8.2440   -3.1260  -16.3370 C   0  0  0  0  0  0  0  0  0  0  0  0
   -4.9040   -1.8380  -17.7720 C   0  0  0  0  0  0  0  0  0  0  0  0
   -6.2170   -2.9650  -15.4180 N   0  0  0  0  0  0  0  0  0  0  0  0
   -6.6370   -1.1890  -19.7870 C   0  0  0  0  0  0  0  0  0  0  0  0
   -4.5310   -1.0850  -18.9100 C   0  0  0  0  0  0  0  0  0  0  0  0
   -9.3240   -3.1650  -17.1590 C   0  0  0  0  0  0  0  0  0  0  0  0
   -3.3020   -0.8280  -18.7180 N   0  0  0  0  0  0  0  0  0  0  0  0
   -7.0480   -3.5190  -14.4980 N   0  0  0  0  0  0  0  0  0  0  0  0
   -3.2590   -2.6900  -15.8780 C   0  0  0  0  0  0  0  0  0  0  0  0
   -5.3790   -0.7310  -19.9060 C   0  0  0  0  0  0  0  0  0  0  0  0
   -6.3590   -2.1190  -17.6440 C   0  0  0  0  0  0  0  0  0  0  0  0
   -1.1410   -1.4870  -15.8210 C   0  0  0  0  0  0  0  0  0  0  0  0
   -6.8910   -2.6750  -16.5170 N   0  0  0  0  0  0  0  0  0  0  0  0
   -8.2520   -3.6630  -15.0530 N   0  0  0  0  0  0  0  0  0  0  0  0
   -7.0860   -1.9410  -18.7870 C   0  0  0  0  0  0  0  0  0  0  0  0
   -2.0650   -2.4090  -15.1730 C   0  0  0  0  0  0  0  0  0  0  0  0
  1 15  1  0
  2 12  1  0
  3  1  2  0
  3  2  1  0
  4 17  4  0
  5 14  4  0
  5  2  2  0
  6 11  4  0
  7 18  4  0
  8 10  2  0
  8  5  4  0
  9  4  1  0
 10  3  1  0
 12 19  2  0
 13  7  4  0
 13  8  4  0
 14 16  1  0
 15 19  1  0
 16  4  4  0
 16  6  4  0
 17 11  4  0
 18 14  4  0
M  END
$$$$

     RDKit          3D

 19 22  0  0  0  0  0  0  0  0999 V2000
   -1.4340   -1.2540  -17.1570 C   0  0  0  0  0  0  0  0  0  0  0  0
   -3.7770   -1.8420  -17.0600 C   0  0  0  0  0  0  0  0  0  0  0  0
   -2.6850   -1.3210  -17.7070 C   0  0  0  0  0  0  0  0  0  0  0  0
   -8.2730   -3.0830  -16.4090 N   0  0  0  0  0  0  0  0  0  0  0  0
   -4.9320   -1.6610  -17.9010 C   0  0  0  0  0  0  0  0  0  0  0  0
   -6.2820   -3.0510  -15.5210 C   0  0  0  0  0  0  0  0  0  0  0  0
   -6.6040   -0.8200  -19.8440 C   0  0  0  0  0  0  0  0  0  0  0  0
   -4.4980   -0.9920  -19.0640 C   0  0  0  0  0  0  0  0  0  0  0  0
   -9.4550   -2.6170  -17.1130 C   0  0  0  0  0  0  0  0  0  0  0  0
   -3.0640   -0.9000  -18.9910 N   0  0  0  0  0  0  0  0  0  0  0  0
   -7.1920   -3.9080  -14.7100 C   0  0  0  0  0  0  0  0  0  0  0  0
   -3.5990   -2.4160  -15.7630 C   0  0  0  0  0  0  0  0  0  0  0  0
   -5.2910   -0.6240  -20.0470 N   0  0  0  0  0  0  0  0  0  0  0  0
   -6.2890   -1.8880  -17.7260 C   0  0  0  0  0  0  0  0  0  0  0  0
   -1.2820   -1.7680  -15.8610 C   0  0  0  0  0  0  0  0  0  0  0  0
   -6.9790   -2.6180  -16.5610 C   0  0  0  0  0  0  0  0  0  0  0  0
   -8.3980   -3.8430  -15.3010 N   0  0  0  0  0  0  0  0  0  0  0  0
   -7.1450   -1.4780  -18.7770 N   0  0  0  0  0  0  0  0  0  0  0  0
   -2.3340   -2.3640  -15.2160 C   0  0  0  0  0  0  0  0  0  0  0  0
  1 15  4  0
  2 12  4  0
  3  1  4  0
  3  2  4  0
  4 17  4  0
  5  8  1  0
  5 14  1  0
  5  2  1  0
  6 11  4  0
  7 18  1  0
  8 10  2  0
  9  4  1  0
 10  3  1  0
 12 19  4  0
 13  7  2  0
 13  8  1  0
 14 16  1  0
 15 19  4  0
 16  4  4  0
 16  6  4  0
 17 11  4  0
 18 14  2  0
M  END
$$$$

     RDKit          3D

 19 22  0  0  0  0  0  0  0  0999 V2000
   -1.1920   -1.6040  -17.4010 C   0  0  0  0  0  0  0  0  0  0  0  0
   -3.7260   -1.9190  -17.1090 C   0  0  0  0  0  0  0  0  0  0  0  0
   -2.5820   -1.4710  -17.8370 C   0  0  0  0  0  0  0  0  0  0  0  0
   -8.2650   -2.9340  -16.5320 C   0  0  0  0  0  0  0  0  0  0  0  0
   -4.9030   -1.6400  -17.9450 C   0  0  0  0  0  0  0  0  0  0  0  0
   -6.2640   -2.8780  -15.5960 N   0  0  0  0  0  0  0  0  0  0  0  0
   -6.6260   -0.6880  -20.0590 C   0  0  0  0  0  0  0  0  0  0  0  0
   -4.3230   -0.9280  -19.0700 C   0  0  0  0  0  0  0  0  0  0  0  0
   -9.4260   -2.8850  -17.4940 C   0  0  0  0  0  0  0  0  0  0  0  0
   -3.0270   -0.8530  -18.9560 N   0  0  0  0  0  0  0  0  0  0  0  0
   -7.1260   -3.5150  -14.7190 N   0  0  0  0  0  0  0  0  0  0  0  0
   -3.4780   -2.4980  -15.8530 C   0  0  0  0  0  0  0  0  0  0  0  0
   -5.2550   -0.4410  -20.1520 C   0  0  0  0  0  0  0  0  0  0  0  0
   -6.3520   -1.8400  -17.8940 C   0  0  0  0  0  0  0  0  0  0  0  0
   -1.0580   -2.3120  -16.0720 C   0  0  0  0  0  0  0  0  0  0  0  0
   -6.9420   -2.5270  -16.6470 C   0  0  0  0  0  0  0  0  0  0  0  0
   -8.4170   -3.4780  -15.2470 N   0  0  0  0  0  0  0  0  0  0  0  0
   -7.2030   -1.3850  -18.9650 C   0  0  0  0  0  0  0  0  0  0  0  0
   -2.1400   -2.6670  -15.2960 C   0  0  0  0  0  0  0  0  0  0  0  0
  1 15  1  0
  2 12  1  0
  3  1  2  0
  3  2  1  0
  4 17  4  0
  5 14  4  0
  5  2  2  0
  6 11  4  0
  7 18  4  0
  8 10  2  0
  8  5  4  0
  9  4  1  0
 10  3  1  0
 12 19  2  0
 13  7  4  0
 13  8  4  0
 14 16  1  0
 15 19  1  0
 16  4  4  0
 16  6  4  0
 17 11  4  0
 18 14  4  0
M  END
$$$$

     RDKit          3D

 19 22  0  0  0  0  0  0  0  0999 V2000
   -1.3210   -1.4360  -17.2590 C   0  0  0  0  0  0  0  0  0  0  0  0
   -3.7120   -1.8770  -17.1440 C   0  0  0  0  0  0  0  0  0  0  0  0
   -2.5910   -1.3620  -17.8380 C   0  0  0  0  0  0  0  0  0  0  0  0
   -8.1880   -3.0210  -16.4040 C   0  0  0  0  0  0  0  0  0  0  0  0
   -4.9020   -1.6350  -17.9290 C   0  0  0  0  0  0  0  0  0  0  0  0
   -6.1500   -2.9610  -15.5720 N   0  0  0  0  0  0  0  0  0  0  0  0
   -6.6480   -0.8160  -19.8840 C   0  0  0  0  0  0  0  0  0  0  0  0
   -4.4570   -1.0190  -19.0810 C   0  0  0  0  0  0  0  0  0  0  0  0
   -9.3320   -3.0050  -17.2490 C   0  0  0  0  0  0  0  0  0  0  0  0
   -3.0900   -0.9210  -18.9710 N   0  0  0  0  0  0  0  0  0  0  0  0
   -7.0110   -3.7470  -14.7130 N   0  0  0  0  0  0  0  0  0  0  0  0
   -3.5330   -2.5240  -15.9140 C   0  0  0  0  0  0  0  0  0  0  0  0
   -5.2600   -0.6610  -20.1560 C   0  0  0  0  0  0  0  0  0  0  0  0
   -6.2700   -1.8900  -17.7740 C   0  0  0  0  0  0  0  0  0  0  0  0
   -1.1660   -2.0390  -16.0230 C   0  0  0  0  0  0  0  0  0  0  0  0
   -6.8800   -2.5860  -16.6410 C   0  0  0  0  0  0  0  0  0  0  0  0
   -8.1900   -3.7600  -15.2210 N   0  0  0  0  0  0  0  0  0  0  0  0
   -7.1550   -1.4100  -18.8290 C   0  0  0  0  0  0  0  0  0  0  0  0
   -2.2490   -2.6160  -15.3870 C   0  0  0  0  0  0  0  0  0  0  0  0
  1 15  1  0
  2 12  1  0
  3  1  2  0
  3  2  1  0
  4 17  4  0
  5 14  4  0
  5  2  2  0
  6 11  4  0
  7 18  4  0
  8 10  2  0
  8  5  4  0
  9  4  1  0
 10  3  1  0
 12 19  2  0
 13  7  4  0
 13  8  4  0
 14 16  1  0
 15 19  1  0
 16  4  4  0
 16  6  4  0
 17 11  4  0
 18 14  4  0
M  END
$$$$

     RDKit          3D

 19 22  0  0  0  0  0  0  0  0999 V2000
   -1.1710   -0.8540  -17.1410 C   0  0  0  0  0  0  0  0  0  0  0  0
   -3.5290   -1.6510  -17.0770 C   0  0  0  0  0  0  0  0  0  0  0  0
   -2.4570   -0.9780  -17.6830 C   0  0  0  0  0  0  0  0  0  0  0  0
   -8.1890   -3.0570  -16.3850 C   0  0  0  0  0  0  0  0  0  0  0  0
   -4.7900   -1.5360  -17.9030 C   0  0  0  0  0  0  0  0  0  0  0  0
   -6.1140   -3.2270  -15.4230 C   0  0  0  0  0  0  0  0  0  0  0  0
   -6.5480   -0.8660  -19.9650 C   0  0  0  0  0  0  0  0  0  0  0  0
   -4.2980   -0.8090  -19.0430 C   0  0  0  0  0  0  0  0  0  0  0  0
   -9.4080   -2.8840  -17.1790 C   0  0  0  0  0  0  0  0  0  0  0  0
   -2.9870   -0.5100  -18.8860 N   0  0  0  0  0  0  0  0  0  0  0  0
   -7.0480   -3.8580  -14.6220 N   0  0  0  0  0  0  0  0  0  0  0  0
   -3.1720   -2.3440  -15.7950 C   0  0  0  0  0  0  0  0  0  0  0  0
   -5.2610   -0.4700  -20.0890 C   0  0  0  0  0  0  0  0  0  0  0  0
   -6.1920   -1.9260  -17.7660 C   0  0  0  0  0  0  0  0  0  0  0  0
   -0.8750   -1.4790  -15.9760 C   0  0  0  0  0  0  0  0  0  0  0  0
   -6.7720   -2.7390  -16.5790 C   0  0  0  0  0  0  0  0  0  0  0  0
   -8.3300   -3.7800  -15.2250 N   0  0  0  0  0  0  0  0  0  0  0  0
   -7.0430   -1.5400  -18.8830 C   0  0  0  0  0  0  0  0  0  0  0  0
   -1.8860   -2.1980  -15.3280 C   0  0  0  0  0  0  0  0  0  0  0  0
  1 15  1  0
  2 12  1  0
  3  1  2  0
  3  2  1  0
  4 17  4  0
  5 14  4  0
  5  2  2  0
  6 11  4  0
  7 18  4  0
  8 10  2  0
  8  5  4  0
  9  4  1  0
 10  3  1  0
 12 19  2  0
 13  7  4  0
 13  8  4  0
 14 16  1  0
 15 19  1  0
 16  4  4  0
 16  6  4  0
 17 11  4  0
 18 14  4  0
M  END
$$$$

     RDKit          3D

 19 22  0  0  0  0  0  0  0  0999 V2000
   -1.2260   -0.6320  -16.5870 C   0  0  0  0  0  0  0  0  0  0  0  0
   -3.3650   -1.7240  -17.0090 C   0  0  0  0  0  0  0  0  0  0  0  0
   -2.3940   -0.7750  -17.4300 C   0  0  0  0  0  0  0  0  0  0  0  0
   -8.0990   -2.8730  -16.3900 C   0  0  0  0  0  0  0  0  0  0  0  0
   -4.6250   -1.5070  -17.7910 C   0  0  0  0  0  0  0  0  0  0  0  0
   -6.0230   -2.9570  -15.3850 C   0  0  0  0  0  0  0  0  0  0  0  0
   -6.3170   -0.9660  -19.9070 C   0  0  0  0  0  0  0  0  0  0  0  0
   -4.1090   -0.7960  -18.9690 C   0  0  0  0  0  0  0  0  0  0  0  0
   -9.2950   -2.7530  -17.3520 C   0  0  0  0  0  0  0  0  0  0  0  0
   -2.8600   -0.4500  -18.7050 N   0  0  0  0  0  0  0  0  0  0  0  0
   -6.9070   -3.6050  -14.5810 N   0  0  0  0  0  0  0  0  0  0  0  0
   -3.0930   -2.6300  -15.9360 C   0  0  0  0  0  0  0  0  0  0  0  0
   -5.0320   -0.5640  -19.9310 N   0  0  0  0  0  0  0  0  0  0  0  0
   -6.0540   -1.8830  -17.7410 C   0  0  0  0  0  0  0  0  0  0  0  0
   -0.9930   -1.4520  -15.5490 C   0  0  0  0  0  0  0  0  0  0  0  0
   -6.6980   -2.5680  -16.5970 C   0  0  0  0  0  0  0  0  0  0  0  0
   -8.2430   -3.5210  -15.2240 N   0  0  0  0  0  0  0  0  0  0  0  0
   -6.7720   -1.6080  -18.8400 N   0  0  0  0  0  0  0  0  0  0  0  0
   -1.8860   -2.4500  -15.1780 C   0  0  0  0  0  0  0  0  0  0  0  0
  1 15  4  0
  2 12  4  0
  3  2  4  0
  3  1  4  0
  4 17  4  0
  5 14  4  0
  5  2  4  0
  6 11  4  0
  7 18  4  0
  8 10  4  0
  8  5  1  0
  9  4  1  0
 10  3  4  0
 12 19  4  0
 13  7  4  0
 13  8  4  0
 14 16  1  0
 15 19  4  0
 16  4  4  0
 16  6  4  0
 17 11  4  0
 18 14  4  0
M  END
$$$$

     RDKit          3D

 19 22  0  0  0  0  0  0  0  0999 V2000
   -1.3650   -1.1090  -17.2570 C   0  0  0  0  0  0  0  0  0  0  0  0
   -3.7490   -1.7630  -17.1050 C   0  0  0  0  0  0  0  0  0  0  0  0
   -2.6250   -1.2340  -17.8570 C   0  0  0  0  0  0  0  0  0  0  0  0
   -8.3100   -2.7450  -16.4220 C   0  0  0  0  0  0  0  0  0  0  0  0
   -4.8980   -1.6070  -17.9870 C   0  0  0  0  0  0  0  0  0  0  0  0
   -6.2030   -2.8420  -15.6090 N   0  0  0  0  0  0  0  0  0  0  0  0
   -6.6770   -1.0260  -19.9420 C   0  0  0  0  0  0  0  0  0  0  0  0
   -4.3930   -1.0620  -19.1790 C   0  0  0  0  0  0  0  0  0  0  0  0
   -9.5340   -2.3680  -17.1890 C   0  0  0  0  0  0  0  0  0  0  0  0
   -3.0690   -0.8450  -19.0820 N   0  0  0  0  0  0  0  0  0  0  0  0
   -7.0850   -3.4670  -14.8010 N   0  0  0  0  0  0  0  0  0  0  0  0
   -3.5190   -2.3070  -15.8430 C   0  0  0  0  0  0  0  0  0  0  0  0
   -5.3350   -0.7660  -20.1190 C   0  0  0  0  0  0  0  0  0  0  0  0
   -6.2700   -1.8040  -17.8710 C   0  0  0  0  0  0  0  0  0  0  0  0
   -1.2370   -1.6470  -16.0060 C   0  0  0  0  0  0  0  0  0  0  0  0
   -6.8750   -2.4720  -16.6770 C   0  0  0  0  0  0  0  0  0  0  0  0
   -8.3740   -3.3490  -15.2570 N   0  0  0  0  0  0  0  0  0  0  0  0
   -7.1070   -1.5090  -18.8620 N   0  0  0  0  0  0  0  0  0  0  0  0
   -2.2000   -2.1660  -15.3050 C   0  0  0  0  0  0  0  0  0  0  0  0
  1 15  1  0
  2 12  1  0
  3  1  2  0
  3  2  1  0
  4 17  4  0
  5 14  4  0
  5  2  2  0
  6 11  4  0
  7 18  4  0
  8 10  2  0
  8  5  4  0
  9  4  1  0
 10  3  1  0
 12 19  2  0
 13  7  4  0
 13  8  4  0
 14 16  1  0
 15 19  1  0
 16  4  4  0
 16  6  4  0
 17 11  4  0
 18 14  4  0
M  END
$$$$

     RDKit          3D

 19 22  0  0  0  0  0  0  0  0999 V2000
   -1.3000   -1.1700  -17.5380 C   0  0  0  0  0  0  0  0  0  0  0  0
   -3.7330   -1.8350  -17.1230 C   0  0  0  0  0  0  0  0  0  0  0  0
   -2.6450   -1.3490  -17.9370 C   0  0  0  0  0  0  0  0  0  0  0  0
   -8.1140   -3.1630  -16.5810 C   0  0  0  0  0  0  0  0  0  0  0  0
   -4.8470   -1.6350  -17.8700 N   0  0  0  0  0  0  0  0  0  0  0  0
   -6.0960   -3.2910  -15.5450 C   0  0  0  0  0  0  0  0  0  0  0  0
   -6.6470   -0.9970  -19.8880 C   0  0  0  0  0  0  0  0  0  0  0  0
   -4.5150   -0.9240  -18.9740 C   0  0  0  0  0  0  0  0  0  0  0  0
   -9.2840   -2.8730  -17.3380 C   0  0  0  0  0  0  0  0  0  0  0  0
   -3.2430   -0.7960  -18.9790 N   0  0  0  0  0  0  0  0  0  0  0  0
   -7.0550   -3.9520  -14.8090 N   0  0  0  0  0  0  0  0  0  0  0  0
   -3.2620   -2.2500  -15.8690 C   0  0  0  0  0  0  0  0  0  0  0  0
   -5.3270   -0.6710  -19.9750 C   0  0  0  0  0  0  0  0  0  0  0  0
   -6.1780   -1.9990  -17.7200 C   0  0  0  0  0  0  0  0  0  0  0  0
   -0.9480   -1.6240  -16.3060 C   0  0  0  0  0  0  0  0  0  0  0  0
   -6.6800   -2.7380  -16.6620 C   0  0  0  0  0  0  0  0  0  0  0  0
   -8.2980   -3.8760  -15.3880 N   0  0  0  0  0  0  0  0  0  0  0  0
   -7.0680   -1.5950  -18.7120 C   0  0  0  0  0  0  0  0  0  0  0  0
   -1.9260   -2.1690  -15.4930 C   0  0  0  0  0  0  0  0  0  0  0  0
  1 15  4  0
  2 12  4  0
  3  1  4  0
  3  2  4  0
  4 17  4  0
  5 14  4  0
  5  2  4  0
  6 11  4  0
  7 18  4  0
  8  5  4  0
  9  4  1  0
 10  8  4  0
 10  3  4  0
 12 19  4  0
 13  7  4  0
 13  8  4  0
 14 16  1  0
 15 19  4  0
 16  4  4  0
 16  6  4  0
 17 11  4  0
 18 14  4  0
M  END
$$$$

     RDKit          3D

 19 22  0  0  0  0  0  0  0  0999 V2000
   -1.4540   -0.9790  -16.9520 C   0  0  0  0  0  0  0  0  0  0  0  0
   -3.7290   -2.0930  -17.0070 C   0  0  0  0  0  0  0  0  0  0  0  0
   -2.6920   -1.3360  -17.6000 C   0  0  0  0  0  0  0  0  0  0  0  0
   -8.2630   -3.1510  -16.4550 C   0  0  0  0  0  0  0  0  0  0  0  0
   -4.9540   -1.8310  -17.8380 C   0  0  0  0  0  0  0  0  0  0  0  0
   -6.2230   -2.9530  -15.4440 N   0  0  0  0  0  0  0  0  0  0  0  0
   -6.6770   -1.0350  -19.8890 C   0  0  0  0  0  0  0  0  0  0  0  0
   -4.4480   -1.1270  -18.9720 C   0  0  0  0  0  0  0  0  0  0  0  0
   -9.4190   -3.1060  -17.4130 C   0  0  0  0  0  0  0  0  0  0  0  0
   -3.1540   -0.9290  -18.7530 N   0  0  0  0  0  0  0  0  0  0  0  0
   -7.1120   -3.6760  -14.6490 N   0  0  0  0  0  0  0  0  0  0  0  0
   -3.4570   -2.9760  -15.9280 C   0  0  0  0  0  0  0  0  0  0  0  0
   -5.2820   -0.7920  -20.0290 C   0  0  0  0  0  0  0  0  0  0  0  0
   -6.3820   -2.0240  -17.7080 C   0  0  0  0  0  0  0  0  0  0  0  0
   -1.0560   -2.0050  -15.8450 C   0  0  0  0  0  0  0  0  0  0  0  0
   -6.9510   -2.6770  -16.5660 C   0  0  0  0  0  0  0  0  0  0  0  0
   -8.2780   -3.7720  -15.2470 N   0  0  0  0  0  0  0  0  0  0  0  0
   -7.1940   -1.6150  -18.7500 C   0  0  0  0  0  0  0  0  0  0  0  0
   -2.3200   -2.4860  -15.0350 C   0  0  0  0  0  0  0  0  0  0  0  0
  1 15  1  0
  2 12  1  0
  3  2  1  0
  3  1  1  0
  4 17  4  0
  5 14  4  0
  5  2  2  0
  6 11  4  0
  7 18  4  0
  8 10  2  0
  8  5  4  0
  9  4  1  0
 10  3  1  0
 12 19  1  0
 13  7  4  0
 13  8  4  0
 14 16  1  0
 15 19  1  0
 16  4  4  0
 16  6  4  0
 17 11  4  0
 18 14  4  0
M  END
$$$$

     RDKit          3D

 19 22  0  0  0  0  0  0  0  0999 V2000
   -1.3710   -1.2470  -17.1270 C   0  0  0  0  0  0  0  0  0  0  0  0
   -3.7550   -1.8960  -17.0960 C   0  0  0  0  0  0  0  0  0  0  0  0
   -2.6440   -1.3350  -17.7690 C   0  0  0  0  0  0  0  0  0  0  0  0
   -8.3350   -2.9810  -16.4670 C   0  0  0  0  0  0  0  0  0  0  0  0
   -4.9910   -1.6600  -17.9310 C   0  0  0  0  0  0  0  0  0  0  0  0
   -6.3700   -2.9330  -15.6470 N   0  0  0  0  0  0  0  0  0  0  0  0
   -6.6310   -0.7190  -20.0450 C   0  0  0  0  0  0  0  0  0  0  0  0
   -4.4420   -1.0160  -19.1150 C   0  0  0  0  0  0  0  0  0  0  0  0
   -9.4440   -2.9030  -17.1500 O   0  0  0  0  0  0  0  0  0  0  0  0
   -3.0480   -0.8880  -18.9590 N   0  0  0  0  0  0  0  0  0  0  0  0
   -7.2310   -3.6260  -14.7640 N   0  0  0  0  0  0  0  0  0  0  0  0
   -3.5120   -2.4890  -15.8310 C   0  0  0  0  0  0  0  0  0  0  0  0
   -5.2490   -0.5540  -20.1760 C   0  0  0  0  0  0  0  0  0  0  0  0
   -6.4100   -1.8160  -17.8670 C   0  0  0  0  0  0  0  0  0  0  0  0
   -1.1730   -1.8510  -15.8320 C   0  0  0  0  0  0  0  0  0  0  0  0
   -7.0750   -2.5120  -16.6880 C   0  0  0  0  0  0  0  0  0  0  0  0
   -8.4630   -3.6320  -15.3590 O   0  0  0  0  0  0  0  0  0  0  0  0
   -7.2270   -1.3170  -18.9110 C   0  0  0  0  0  0  0  0  0  0  0  0
   -2.2530   -2.4290  -15.1830 C   0  0  0  0  0  0  0  0  0  0  0  0
  1 15  1  0
  2 12  1  0
  3  1  2  0
  3  2  1  0
  4 17  4  0
  5 14  4  0
  5  2  2  0
  6 11  4  0
  7 18  4  0
  8 10  2  0
  8  5  4  0
  9  4  2  0
 10  3  1  0
 12 19  2  0
 13  7  4  0
 13  8  4  0
 14 16  1  0
 15 19  1  0
 16  4  4  0
 16  6  4  0
 17 11  4  0
 18 14  4  0
M  END
$$$$

     RDKit          3D

 19 22  0  0  0  0  0  0  0  0999 V2000
   -1.2810   -1.5070  -17.3180 C   0  0  0  0  0  0  0  0  0  0  0  0
   -3.6740   -1.8150  -17.1020 C   0  0  0  0  0  0  0  0  0  0  0  0
   -2.5920   -1.4060  -17.7790 C   0  0  0  0  0  0  0  0  0  0  0  0
   -8.2440   -2.8220  -16.5860 C   0  0  0  0  0  0  0  0  0  0  0  0
   -4.8530   -1.6300  -17.9070 N   0  0  0  0  0  0  0  0  0  0  0  0
   -6.2190   -3.0220  -15.5450 C   0  0  0  0  0  0  0  0  0  0  0  0
   -6.4970   -0.7150  -19.9750 N   0  0  0  0  0  0  0  0  0  0  0  0
   -4.3710   -1.0820  -19.0860 C   0  0  0  0  0  0  0  0  0  0  0  0
   -9.4570   -2.4680  -17.3860 C   0  0  0  0  0  0  0  0  0  0  0  0
   -3.0460   -0.9610  -19.0150 N   0  0  0  0  0  0  0  0  0  0  0  0
   -7.1750   -3.6380  -14.8250 C   0  0  0  0  0  0  0  0  0  0  0  0
   -3.5400   -2.4250  -15.8110 C   0  0  0  0  0  0  0  0  0  0  0  0
   -5.1600   -0.6160  -20.0680 C   0  0  0  0  0  0  0  0  0  0  0  0
   -6.2590   -1.7990  -17.8180 C   0  0  0  0  0  0  0  0  0  0  0  0
   -1.1140   -2.0840  -16.0800 C   0  0  0  0  0  0  0  0  0  0  0  0
   -6.9150   -2.4730  -16.6640 C   0  0  0  0  0  0  0  0  0  0  0  0
   -8.4090   -3.4580  -15.4390 N   0  0  0  0  0  0  0  0  0  0  0  0
   -7.0160   -1.3070  -18.8460 C   0  0  0  0  0  0  0  0  0  0  0  0
   -2.2080   -2.5670  -15.3530 C   0  0  0  0  0  0  0  0  0  0  0  0
  1 15  4  0
  2 12  4  0
  3  1  4  0
  3  2  4  0
  4 17  4  0
  5 14  4  0
  5  2  4  0
  6 11  4  0
  7 18  4  0
  8 10  4  0
  8  5  4  0
  9  4  1  0
 10  3  4  0
 12 19  4  0
 13  7  4  0
 13  8  4  0
 14 16  1  0
 15 19  4  0
 16  4  4  0
 16  6  4  0
 17 11  4  0
 18 14  4  0
M  END
$$$$

     RDKit          3D

 19 22  0  0  0  0  0  0  0  0999 V2000
   -1.0330   -1.6160  -17.2790 C   0  0  0  0  0  0  0  0  0  0  0  0
   -3.4740   -1.8880  -17.0610 C   0  0  0  0  0  0  0  0  0  0  0  0
   -2.3670   -1.3810  -17.8050 C   0  0  0  0  0  0  0  0  0  0  0  0
   -8.2520   -2.9560  -16.4930 C   0  0  0  0  0  0  0  0  0  0  0  0
   -4.7070   -1.6330  -17.8970 C   0  0  0  0  0  0  0  0  0  0  0  0
   -6.1470   -3.2200  -15.7020 N   0  0  0  0  0  0  0  0  0  0  0  0
   -6.4590   -0.6500  -19.8940 C   0  0  0  0  0  0  0  0  0  0  0  0
   -4.2150   -1.1070  -19.1070 C   0  0  0  0  0  0  0  0  0  0  0  0
   -9.4290   -2.6450  -17.3320 C   0  0  0  0  0  0  0  0  0  0  0  0
   -2.8130   -1.0280  -19.0510 N   0  0  0  0  0  0  0  0  0  0  0  0
   -7.1130   -3.8590  -14.9580 N   0  0  0  0  0  0  0  0  0  0  0  0
   -3.3630   -2.3930  -15.7460 C   0  0  0  0  0  0  0  0  0  0  0  0
   -5.0530   -0.5230  -20.1270 C   0  0  0  0  0  0  0  0  0  0  0  0
   -6.1520   -1.8310  -17.7740 C   0  0  0  0  0  0  0  0  0  0  0  0
   -0.9350   -2.1750  -16.0240 C   0  0  0  0  0  0  0  0  0  0  0  0
   -6.8250   -2.5940  -16.7200 C   0  0  0  0  0  0  0  0  0  0  0  0
   -8.3630   -3.7240  -15.3730 N   0  0  0  0  0  0  0  0  0  0  0  0
   -6.9840   -1.2380  -18.7480 C   0  0  0  0  0  0  0  0  0  0  0  0
   -2.0930   -2.5330  -15.2470 C   0  0  0  0  0  0  0  0  0  0  0  0
  1 15  1  0
  2 12  1  0
  3  1  2  0
  3  2  1  0
  4 17  4  0
  5 14  4  0
  5  2  2  0
  6 11  4  0
  7 18  4  0
  8 10  2  0
  8  5  4  0
  9  4  1  0
 10  3  1  0
 12 19  2  0
 13  7  4  0
 13  8  4  0
 14 16  1  0
 15 19  1  0
 16  4  4  0
 16  6  4  0
 17 11  4  0
 18 14  4  0
M  END
$$$$

     RDKit          3D

 19 22  0  0  0  0  0  0  0  0999 V2000
   -1.2440   -0.5900  -17.1370 C   0  0  0  0  0  0  0  0  0  0  0  0
   -3.5360   -1.6800  -17.1260 C   0  0  0  0  0  0  0  0  0  0  0  0
   -2.4220   -0.9410  -17.8160 C   0  0  0  0  0  0  0  0  0  0  0  0
   -8.1630   -2.8700  -16.4710 C   0  0  0  0  0  0  0  0  0  0  0  0
   -4.7680   -1.5370  -18.0040 C   0  0  0  0  0  0  0  0  0  0  0  0
   -6.1340   -3.2470  -15.6830 C   0  0  0  0  0  0  0  0  0  0  0  0
   -6.6590   -0.7740  -20.0560 C   0  0  0  0  0  0  0  0  0  0  0  0
   -4.2780   -0.8300  -19.2460 C   0  0  0  0  0  0  0  0  0  0  0  0
   -9.5460   -2.4940  -17.3500 S   0  0  0  0  0  0  0  0  0  0  0  0
   -2.8200   -0.5590  -19.1320 N   0  0  0  0  0  0  0  0  0  0  0  0
   -7.0830   -3.9380  -14.8800 N   0  0  0  0  0  0  0  0  0  0  0  0
   -3.2250   -2.3510  -15.8530 C   0  0  0  0  0  0  0  0  0  0  0  0
   -5.2270   -0.4340  -20.3110 C   0  0  0  0  0  0  0  0  0  0  0  0
   -6.1830   -1.8550  -17.7590 C   0  0  0  0  0  0  0  0  0  0  0  0
   -1.0100   -1.4490  -15.8160 C   0  0  0  0  0  0  0  0  0  0  0  0
   -6.7340   -2.5950  -16.7110 C   0  0  0  0  0  0  0  0  0  0  0  0
   -8.2590   -3.6470  -15.3580 N   0  0  0  0  0  0  0  0  0  0  0  0
   -7.0110   -1.3790  -18.8170 C   0  0  0  0  0  0  0  0  0  0  0  0
   -1.9790   -2.1350  -15.2000 C   0  0  0  0  0  0  0  0  0  0  0  0
  1 15  1  0
  2 12  1  0
  3  1  1  0
  3  2  1  0
  4 17  1  0
  5 14  4  0
  5  2  2  0
  6 11  1  0
  7 18  4  0
  8 10  2  0
  8  5  4  0
  9  4  2  0
 10  3  1  0
 12 19  1  0
 13  7  4  0
 13  8  4  0
 14 16  1  0
 15 19  2  0
 16  4  1  0
 16  6  2  0
 17 11  2  0
 18 14  4  0
M  END
$$$$

     RDKit          3D

 19 22  0  0  0  0  0  0  0  0999 V2000
   -1.2960   -0.9300  -16.9970 C   0  0  0  0  0  0  0  0  0  0  0  0
   -3.5950   -1.8580  -16.9330 C   0  0  0  0  0  0  0  0  0  0  0  0
   -2.4970   -1.1090  -17.5730 C   0  0  0  0  0  0  0  0  0  0  0  0
   -8.1960   -3.1530  -16.2830 C   0  0  0  0  0  0  0  0  0  0  0  0
   -4.8330   -1.6360  -17.7010 C   0  0  0  0  0  0  0  0  0  0  0  0
   -6.2530   -3.1900  -15.2430 C   0  0  0  0  0  0  0  0  0  0  0  0
   -6.4750   -0.9880  -19.7950 C   0  0  0  0  0  0  0  0  0  0  0  0
   -4.4080   -0.8600  -18.8620 C   0  0  0  0  0  0  0  0  0  0  0  0
   -9.3770   -2.9610  -17.1740 C   0  0  0  0  0  0  0  0  0  0  0  0
   -3.0170   -0.5660  -18.7260 N   0  0  0  0  0  0  0  0  0  0  0  0
   -7.0640   -3.9000  -14.4440 N   0  0  0  0  0  0  0  0  0  0  0  0
   -3.2620   -2.5990  -15.7380 C   0  0  0  0  0  0  0  0  0  0  0  0
   -5.2730   -0.5270  -19.9380 N   0  0  0  0  0  0  0  0  0  0  0  0
   -6.2390   -2.0480  -17.6200 C   0  0  0  0  0  0  0  0  0  0  0  0
   -0.9730   -1.7050  -15.8430 C   0  0  0  0  0  0  0  0  0  0  0  0
   -6.8000   -2.7220  -16.4140 C   0  0  0  0  0  0  0  0  0  0  0  0
   -8.2140   -3.9410  -15.0980 N   0  0  0  0  0  0  0  0  0  0  0  0
   -6.9180   -1.6600  -18.6910 N   0  0  0  0  0  0  0  0  0  0  0  0
   -1.9510   -2.5230  -15.2170 C   0  0  0  0  0  0  0  0  0  0  0  0
  1 15  4  0
  2 12  4  0
  3  1  4  0
  3  2  4  0
  4 17  4  0
  5  8  1  0
  5 14  1  0
  5  2  1  0
  6 11  4  0
  7 18  1  0
  8 10  2  0
  9  4  1  0
 10  3  1  0
 12 19  4  0
 13  7  2  0
 13  8  1  0
 14 16  1  0
 15 19  4  0
 16  4  4  0
 16  6  4  0
 17 11  4  0
 18 14  2  0
M  END
$$$$

     RDKit          3D

 19 22  0  0  0  0  0  0  0  0999 V2000
   -1.3900   -1.2030  -17.2740 C   0  0  0  0  0  0  0  0  0  0  0  0
   -3.7140   -1.7140  -17.1410 C   0  0  0  0  0  0  0  0  0  0  0  0
   -2.5990   -1.2750  -17.8180 C   0  0  0  0  0  0  0  0  0  0  0  0
   -8.2420   -2.6180  -16.4970 C   0  0  0  0  0  0  0  0  0  0  0  0
   -4.8610   -1.5360  -17.9990 C   0  0  0  0  0  0  0  0  0  0  0  0
   -6.1640   -2.9300  -15.7150 N   0  0  0  0  0  0  0  0  0  0  0  0
   -6.5080   -0.7840  -20.1000 C   0  0  0  0  0  0  0  0  0  0  0  0
   -4.3210   -0.9550  -19.1670 C   0  0  0  0  0  0  0  0  0  0  0  0
   -9.4860   -2.3240  -17.2300 C   0  0  0  0  0  0  0  0  0  0  0  0
   -2.9680   -0.8650  -19.0930 N   0  0  0  0  0  0  0  0  0  0  0  0
   -7.0120   -3.5180  -14.7270 N   0  0  0  0  0  0  0  0  0  0  0  0
   -3.5140   -2.3300  -15.9190 C   0  0  0  0  0  0  0  0  0  0  0  0
   -5.1370   -0.5920  -20.2430 C   0  0  0  0  0  0  0  0  0  0  0  0
   -6.2480   -1.7020  -17.9400 C   0  0  0  0  0  0  0  0  0  0  0  0
   -1.2000   -1.7140  -16.0090 C   0  0  0  0  0  0  0  0  0  0  0  0
   -6.8470   -2.3670  -16.6960 C   0  0  0  0  0  0  0  0  0  0  0  0
   -8.3290   -3.2880  -15.2990 N   0  0  0  0  0  0  0  0  0  0  0  0
   -7.0530   -1.3500  -18.9900 C   0  0  0  0  0  0  0  0  0  0  0  0
   -2.3000   -2.2640  -15.3460 C   0  0  0  0  0  0  0  0  0  0  0  0
  1 15  1  0
  2 12  1  0
  3  1  2  0
  3  2  1  0
  4 17  4  0
  5 14  4  0
  5  2  2  0
  6 11  4  0
  7 18  4  0
  8 10  2  0
  8  5  4  0
  9  4  1  0
 10  3  1  0
 12 19  2  0
 13  7  4  0
 13  8  4  0
 14 16  1  0
 15 19  1  0
 16  4  4  0
 16  6  4  0
 17 11  4  0
 18 14  4  0
M  END
$$$$

     RDKit          3D

 19 22  0  0  0  0  0  0  0  0999 V2000
   -1.1790   -1.1090  -17.5860 C   0  0  0  0  0  0  0  0  0  0  0  0
   -3.5440   -1.8230  -17.1700 C   0  0  0  0  0  0  0  0  0  0  0  0
   -2.4960   -1.1510  -17.9710 C   0  0  0  0  0  0  0  0  0  0  0  0
   -8.1890   -3.2020  -16.5610 C   0  0  0  0  0  0  0  0  0  0  0  0
   -4.8070   -1.6360  -17.9560 C   0  0  0  0  0  0  0  0  0  0  0  0
   -6.1850   -3.1020  -15.3740 C   0  0  0  0  0  0  0  0  0  0  0  0
   -6.7090   -0.9380  -20.0060 C   0  0  0  0  0  0  0  0  0  0  0  0
   -4.3950   -0.9980  -19.1590 C   0  0  0  0  0  0  0  0  0  0  0  0
   -9.1690   -3.2010  -17.4500 N   0  0  0  0  0  0  0  0  0  0  0  0
   -3.0410   -0.7820  -19.1620 N   0  0  0  0  0  0  0  0  0  0  0  0
   -7.1430   -3.7390  -14.5760 N   0  0  0  0  0  0  0  0  0  0  0  0
   -3.2210   -2.2140  -15.8340 C   0  0  0  0  0  0  0  0  0  0  0  0
   -5.4160   -0.5980  -20.2270 C   0  0  0  0  0  0  0  0  0  0  0  0
   -6.2490   -2.0210  -17.8610 C   0  0  0  0  0  0  0  0  0  0  0  0
   -0.8540   -1.5960  -16.3080 C   0  0  0  0  0  0  0  0  0  0  0  0
   -6.8100   -2.6790  -16.6580 C   0  0  0  0  0  0  0  0  0  0  0  0
   -8.3700   -3.7550  -15.2630 N   0  0  0  0  0  0  0  0  0  0  0  0
   -7.1390   -1.6390  -18.9190 C   0  0  0  0  0  0  0  0  0  0  0  0
   -1.8470   -2.1160  -15.4290 C   0  0  0  0  0  0  0  0  0  0  0  0
  1 15  1  0
  2 12  1  0
  3  1  2  0
  3  2  1  0
  4 17  4  0
  5 14  4  0
  5  2  2  0
  6 11  4  0
  7 18  4  0
  8  5  4  0
  9  4  1  0
 10  8  2  0
 10  3  1  0
 12 19  2  0
 13  7  4  0
 13  8  4  0
 14 16  1  0
 15 19  1  0
 16  4  4  0
 16  6  4  0
 17 11  4  0
 18 14  4  0
M  END
$$$$

     RDKit          3D

 19 22  0  0  0  0  0  0  0  0999 V2000
   -1.3330   -1.0260  -16.8290 C   0  0  0  0  0  0  0  0  0  0  0  0
   -3.6510   -2.0030  -17.0510 C   0  0  0  0  0  0  0  0  0  0  0  0
   -2.6550   -1.2500  -17.5690 C   0  0  0  0  0  0  0  0  0  0  0  0
   -8.2810   -2.9310  -16.3480 C   0  0  0  0  0  0  0  0  0  0  0  0
   -4.7520   -1.7650  -17.8630 C   0  0  0  0  0  0  0  0  0  0  0  0
   -6.1860   -3.1030  -15.3850 C   0  0  0  0  0  0  0  0  0  0  0  0
   -6.5580   -0.8780  -19.8610 C   0  0  0  0  0  0  0  0  0  0  0  0
   -4.3370   -0.9660  -18.9570 C   0  0  0  0  0  0  0  0  0  0  0  0
   -9.2990   -2.5940  -17.0350 O   0  0  0  0  0  0  0  0  0  0  0  0
   -2.9580   -0.7920  -18.7290 N   0  0  0  0  0  0  0  0  0  0  0  0
   -7.1620   -3.8720  -14.6690 C   0  0  0  0  0  0  0  0  0  0  0  0
   -3.5840   -2.7420  -15.8100 C   0  0  0  0  0  0  0  0  0  0  0  0
   -5.1670   -0.5610  -19.9580 C   0  0  0  0  0  0  0  0  0  0  0  0
   -6.1620   -2.0640  -17.7400 C   0  0  0  0  0  0  0  0  0  0  0  0
   -1.3150   -1.7990  -15.5160 C   0  0  0  0  0  0  0  0  0  0  0  0
   -6.8480   -2.6810  -16.5270 C   0  0  0  0  0  0  0  0  0  0  0  0
   -8.4540   -3.7260  -15.2250 N   0  0  0  0  0  0  0  0  0  0  0  0
   -6.9980   -1.5900  -18.7650 C   0  0  0  0  0  0  0  0  0  0  0  0
   -2.5360   -2.1420  -14.9770 C   0  0  0  0  0  0  0  0  0  0  0  0
  1 15  1  0
  2 12  1  0
  3  2  4  0
  3  1  1  0
  4 17  1  0
  5 14  4  0
  5  2  4  0
  6 11  1  0
  7 18  4  0
  8 10  4  0
  8  5  4  0
  9  4  2  0
 10  3  4  0
 12 19  1  0
 13  7  4  0
 13  8  4  0
 15 19  1  0
 16 14  1  0
 16  4  1  0
 16  6  1  0
 17 11  1  0
 18 14  4  0
M  END
$$$$

     RDKit          3D

 19 22  0  0  0  0  0  0  0  0999 V2000
   -1.3100   -1.3860  -17.3650 C   0  0  0  0  0  0  0  0  0  0  0  0
   -3.6440   -1.8950  -17.0770 C   0  0  0  0  0  0  0  0  0  0  0  0
   -2.5540   -1.3590  -17.8410 C   0  0  0  0  0  0  0  0  0  0  0  0
   -8.3260   -2.7390  -16.4790 C   0  0  0  0  0  0  0  0  0  0  0  0
   -4.8310   -1.7120  -17.8920 C   0  0  0  0  0  0  0  0  0  0  0  0
   -6.2370   -3.1540  -15.6600 N   0  0  0  0  0  0  0  0  0  0  0  0
   -6.5680   -0.7360  -19.9350 C   0  0  0  0  0  0  0  0  0  0  0  0
   -4.3920   -0.9760  -19.0880 C   0  0  0  0  0  0  0  0  0  0  0  0
   -9.4370   -2.4410  -17.2430 C   0  0  0  0  0  0  0  0  0  0  0  0
   -3.0690   -0.8870  -18.9860 N   0  0  0  0  0  0  0  0  0  0  0  0
   -7.1570   -3.6280  -14.8310 N   0  0  0  0  0  0  0  0  0  0  0  0
   -3.4060   -2.3950  -15.8340 C   0  0  0  0  0  0  0  0  0  0  0  0
   -5.2850   -0.5620  -20.0380 C   0  0  0  0  0  0  0  0  0  0  0  0
   -6.2060   -1.8960  -17.8180 C   0  0  0  0  0  0  0  0  0  0  0  0
   -1.0360   -1.8490  -16.0370 C   0  0  0  0  0  0  0  0  0  0  0  0
   -6.9020   -2.6270  -16.7200 C   0  0  0  0  0  0  0  0  0  0  0  0
   -8.3360   -3.3800  -15.2760 N   0  0  0  0  0  0  0  0  0  0  0  0
   -7.0220   -1.4580  -18.8170 C   0  0  0  0  0  0  0  0  0  0  0  0
   -2.0440   -2.3900  -15.3400 C   0  0  0  0  0  0  0  0  0  0  0  0
  1 15  1  0
  2 12  1  0
  3  1  2  0
  3  2  1  0
  4 17  4  0
  5 14  4  0
  5  2  2  0
  6 11  4  0
  7 18  4  0
  8 10  2  0
  8  5  4  0
  9  4  1  0
 10  3  1  0
 12 19  2  0
 13  7  4  0
 13  8  4  0
 14 16  1  0
 15 19  1  0
 16  4  4  0
 16  6  4  0
 17 11  4  0
 18 14  4  0
M  END
$$$$

     RDKit          3D

 19 22  0  0  0  0  0  0  0  0999 V2000
   -1.3060   -1.4310  -17.3200 C   0  0  0  0  0  0  0  0  0  0  0  0
   -3.7910   -1.9570  -17.1580 C   0  0  0  0  0  0  0  0  0  0  0  0
   -2.6220   -1.4260  -17.8420 C   0  0  0  0  0  0  0  0  0  0  0  0
   -8.3100   -3.0480  -16.6170 C   0  0  0  0  0  0  0  0  0  0  0  0
   -5.0260   -1.7060  -17.9090 C   0  0  0  0  0  0  0  0  0  0  0  0
   -6.4000   -3.0000  -15.5430 N   0  0  0  0  0  0  0  0  0  0  0  0
   -6.7740   -0.7350  -19.7380 N   0  0  0  0  0  0  0  0  0  0  0  0
   -4.5070   -1.0050  -19.0780 C   0  0  0  0  0  0  0  0  0  0  0  0
   -9.2770   -3.0490  -17.6190 N   0  0  0  0  0  0  0  0  0  0  0  0
   -3.1250   -0.8640  -19.0470 N   0  0  0  0  0  0  0  0  0  0  0  0
   -7.3130   -3.4790  -14.7610 N   0  0  0  0  0  0  0  0  0  0  0  0
   -3.5010   -2.7120  -15.9720 C   0  0  0  0  0  0  0  0  0  0  0  0
   -5.4140   -0.5260  -19.9740 C   0  0  0  0  0  0  0  0  0  0  0  0
   -6.2940   -1.9330  -17.7570 C   0  0  0  0  0  0  0  0  0  0  0  0
   -1.1370   -2.0800  -16.0850 C   0  0  0  0  0  0  0  0  0  0  0  0
   -6.9490   -2.5540  -16.7040 C   0  0  0  0  0  0  0  0  0  0  0  0
   -8.4690   -3.5620  -15.3820 N   0  0  0  0  0  0  0  0  0  0  0  0
   -7.1280   -1.4700  -18.7560 C   0  0  0  0  0  0  0  0  0  0  0  0
   -2.2370   -2.7180  -15.5080 C   0  0  0  0  0  0  0  0  0  0  0  0
  1 15  1  0
  2 12  1  0
  3  1  2  0
  3  2  1  0
  4 17  4  0
  5 14  4  0
  5  2  2  0
  6 11  4  0
  7 18  4  0
  8 10  2  0
  8  5  4  0
  9  4  1  0
 10  3  1  0
 12 19  2  0
 13  7  4  0
 13  8  4  0
 14 16  1  0
 15 19  1  0
 16  4  4  0
 16  6  4  0
 17 11  4  0
 18 14  4  0
M  END
$$$$

     RDKit          3D

 19 22  0  0  0  0  0  0  0  0999 V2000
   -1.0810   -1.7380  -17.1350 C   0  0  0  0  0  0  0  0  0  0  0  0
   -3.5440   -1.7950  -16.9740 C   0  0  0  0  0  0  0  0  0  0  0  0
   -2.3630   -1.5480  -17.6480 C   0  0  0  0  0  0  0  0  0  0  0  0
   -8.0710   -2.9160  -16.4890 C   0  0  0  0  0  0  0  0  0  0  0  0
   -4.7040   -1.5810  -17.8280 C   0  0  0  0  0  0  0  0  0  0  0  0
   -6.0740   -2.9800  -15.6410 N   0  0  0  0  0  0  0  0  0  0  0  0
   -6.3390   -0.7580  -19.8880 C   0  0  0  0  0  0  0  0  0  0  0  0
   -4.0900   -0.9960  -18.9980 C   0  0  0  0  0  0  0  0  0  0  0  0
   -9.3000   -2.5310  -17.2300 C   0  0  0  0  0  0  0  0  0  0  0  0
   -2.7410   -0.9580  -18.8170 N   0  0  0  0  0  0  0  0  0  0  0  0
   -6.9260   -3.7670  -14.8870 N   0  0  0  0  0  0  0  0  0  0  0  0
   -3.3570   -2.3540  -15.6750 C   0  0  0  0  0  0  0  0  0  0  0  0
   -4.9440   -0.5690  -20.0490 C   0  0  0  0  0  0  0  0  0  0  0  0
   -6.0900   -1.7860  -17.6780 C   0  0  0  0  0  0  0  0  0  0  0  0
   -0.9380   -2.1200  -15.8420 C   0  0  0  0  0  0  0  0  0  0  0  0
   -6.7240   -2.5180  -16.6610 C   0  0  0  0  0  0  0  0  0  0  0  0
   -8.1310   -3.6400  -15.3960 N   0  0  0  0  0  0  0  0  0  0  0  0
   -6.8910   -1.2880  -18.7890 C   0  0  0  0  0  0  0  0  0  0  0  0
   -2.1020   -2.4490  -15.0680 C   0  0  0  0  0  0  0  0  0  0  0  0
  1 15  1  0
  2 12  1  0
  3  1  2  0
  3  2  1  0
  4 17  4  0
  5 14  4  0
  5  2  2  0
  6 11  4  0
  7 18  4  0
  8 10  2  0
  8  5  4  0
  9  4  1  0
 10  3  1  0
 12 19  2  0
 13  7  4  0
 13  8  4  0
 14 16  1  0
 15 19  1  0
 16  4  4  0
 16  6  4  0
 17 11  4  0
 18 14  4  0
M  END
$$$$

     RDKit          3D

 19 22  0  0  0  0  0  0  0  0999 V2000
   -1.3760   -0.7440  -17.0010 C   0  0  0  0  0  0  0  0  0  0  0  0
   -3.6110   -1.7830  -17.0220 C   0  0  0  0  0  0  0  0  0  0  0  0
   -2.6450   -0.9790  -17.6010 C   0  0  0  0  0  0  0  0  0  0  0  0
   -8.1970   -2.9430  -16.4060 C   0  0  0  0  0  0  0  0  0  0  0  0
   -4.8300   -1.5220  -17.8380 C   0  0  0  0  0  0  0  0  0  0  0  0
   -6.0760   -3.2520  -15.5580 C   0  0  0  0  0  0  0  0  0  0  0  0
   -6.7030   -0.7860  -19.7990 N   0  0  0  0  0  0  0  0  0  0  0  0
   -4.4710   -0.7360  -18.8980 C   0  0  0  0  0  0  0  0  0  0  0  0
   -9.1690   -2.6250  -17.0080 O   0  0  0  0  0  0  0  0  0  0  0  0
   -3.1240   -0.4240  -18.7500 N   0  0  0  0  0  0  0  0  0  0  0  0
   -6.9640   -3.8410  -14.6880 N   0  0  0  0  0  0  0  0  0  0  0  0
   -3.3020   -2.5060  -15.9120 C   0  0  0  0  0  0  0  0  0  0  0  0
   -5.4490   -0.4290  -19.8430 C   0  0  0  0  0  0  0  0  0  0  0  0
   -6.2320   -1.9200  -17.7040 C   0  0  0  0  0  0  0  0  0  0  0  0
   -1.0880   -1.3810  -15.9150 C   0  0  0  0  0  0  0  0  0  0  0  0
   -6.7570   -2.6910  -16.6110 C   0  0  0  0  0  0  0  0  0  0  0  0
   -8.2530   -3.6850  -15.2480 N   0  0  0  0  0  0  0  0  0  0  0  0
   -7.1310   -1.4640  -18.7420 C   0  0  0  0  0  0  0  0  0  0  0  0
   -1.9980   -2.3000  -15.3290 C   0  0  0  0  0  0  0  0  0  0  0  0
  1 15  1  0
  2 12  1  0
  3  2  1  0
  3  1  2  0
  4 17  1  0
  5 14  4  0
  5  2  2  0
  6 11  2  0
  7 18  4  0
  8 10  2  0
  8  5  4  0
  9  4  2  0
 10  3  1  0
 12 19  2  0
 13  7  4  0
 13  8  4  0
 15 19  1  0
 16 14  1  0
 16  4  1  0
 16  6  1  0
 17 11  1  0
 18 14  4  0
M  END
$$$$

     RDKit          3D

 19 22  0  0  0  0  0  0  0  0999 V2000
   -1.2780   -1.0320  -16.9650 C   0  0  0  0  0  0  0  0  0  0  0  0
   -3.6030   -1.7180  -16.8540 C   0  0  0  0  0  0  0  0  0  0  0  0
   -2.5320   -1.1450  -17.4170 C   0  0  0  0  0  0  0  0  0  0  0  0
   -8.2470   -2.9440  -16.3870 C   0  0  0  0  0  0  0  0  0  0  0  0
   -4.8190   -1.5880  -17.7090 C   0  0  0  0  0  0  0  0  0  0  0  0
   -6.2270   -2.8500  -15.3110 C   0  0  0  0  0  0  0  0  0  0  0  0
   -6.3890   -0.9690  -19.8730 C   0  0  0  0  0  0  0  0  0  0  0  0
   -4.2460   -0.9100  -18.8660 C   0  0  0  0  0  0  0  0  0  0  0  0
   -9.3290   -2.8500  -17.3580 C   0  0  0  0  0  0  0  0  0  0  0  0
   -2.9580   -0.5880  -18.6730 O   0  0  0  0  0  0  0  0  0  0  0  0
   -7.1840   -3.3730  -14.4500 N   0  0  0  0  0  0  0  0  0  0  0  0
   -3.2900   -2.4930  -15.6850 C   0  0  0  0  0  0  0  0  0  0  0  0
   -5.0830   -0.6220  -19.9260 C   0  0  0  0  0  0  0  0  0  0  0  0
   -6.2490   -1.8630  -17.6890 C   0  0  0  0  0  0  0  0  0  0  0  0
   -1.0280   -1.7340  -15.7290 C   0  0  0  0  0  0  0  0  0  0  0  0
   -6.8590   -2.5500  -16.5270 C   0  0  0  0  0  0  0  0  0  0  0  0
   -8.3820   -3.4270  -15.1460 N   0  0  0  0  0  0  0  0  0  0  0  0
   -6.9750   -1.5980  -18.8760 C   0  0  0  0  0  0  0  0  0  0  0  0
   -2.0830   -2.4560  -15.1180 C   0  0  0  0  0  0  0  0  0  0  0  0
  1 15  4  0
  2 12  4  0
  3  1  4  0
  3  2  4  0
  4 17  4  0
  5 14  4  0
  5  2  4  0
  6 11  4  0
  7 18  4  0
  8 10  4  0
  8  5  4  0
  9  4  1  0
 10  3  4  0
 12 19  4  0
 13  7  4  0
 13  8  4  0
 14 16  1  0
 15 19  4  0
 16  4  4  0
 16  6  4  0
 17 11  4  0
 18 14  4  0
M  END
$$$$

     RDKit          3D

 19 22  0  0  0  0  0  0  0  0999 V2000
   -1.3610   -1.1610  -17.4380 C   0  0  0  0  0  0  0  0  0  0  0  0
   -3.8230   -1.7790  -17.2250 C   0  0  0  0  0  0  0  0  0  0  0  0
   -2.6450   -1.2560  -18.0290 C   0  0  0  0  0  0  0  0  0  0  0  0
   -8.3390   -2.6830  -16.3730 C   0  0  0  0  0  0  0  0  0  0  0  0
   -4.9520   -1.5670  -18.0580 C   0  0  0  0  0  0  0  0  0  0  0  0
   -6.1890   -3.0350  -15.7460 N   0  0  0  0  0  0  0  0  0  0  0  0
   -6.7550   -0.7810  -20.1110 C   0  0  0  0  0  0  0  0  0  0  0  0
   -4.4330   -0.9160  -19.3070 C   0  0  0  0  0  0  0  0  0  0  0  0
   -9.6600   -2.5060  -17.1150 C   0  0  0  0  0  0  0  0  0  0  0  0
   -3.0650   -0.9030  -19.2460 N   0  0  0  0  0  0  0  0  0  0  0  0
   -7.0320   -3.7540  -14.8480 N   0  0  0  0  0  0  0  0  0  0  0  0
   -3.6660   -2.2280  -15.8720 C   0  0  0  0  0  0  0  0  0  0  0  0
   -5.3640   -0.5380  -20.3200 C   0  0  0  0  0  0  0  0  0  0  0  0
   -6.4460   -1.8170  -17.9580 C   0  0  0  0  0  0  0  0  0  0  0  0
   -1.2160   -1.6600  -16.1360 C   0  0  0  0  0  0  0  0  0  0  0  0
   -7.0030   -2.5300  -16.7470 C   0  0  0  0  0  0  0  0  0  0  0  0
   -8.3660   -3.5390  -15.2240 N   0  0  0  0  0  0  0  0  0  0  0  0
   -7.2430   -1.3760  -19.0090 N   0  0  0  0  0  0  0  0  0  0  0  0
   -2.2950   -2.1500  -15.3790 C   0  0  0  0  0  0  0  0  0  0  0  0
  1 15  1  0
  2 12  1  0
  3  1  2  0
  3  2  1  0
  4 17  4  0
  5 14  4  0
  5  2  2  0
  6 11  4  0
  7 18  4  0
  8 10  2  0
  8  5  4  0
  9  4  1  0
 10  3  1  0
 12 19  2  0
 13  7  4  0
 13  8  4  0
 14 16  1  0
 15 19  1  0
 16  4  4  0
 16  6  4  0
 17 11  4  0
 18 14  4  0
M  END
$$$$

     RDKit          3D

 19 22  0  0  0  0  0  0  0  0999 V2000
   -1.1300   -1.3890  -17.5380 C   0  0  0  0  0  0  0  0  0  0  0  0
   -3.5490   -1.8880  -17.0330 C   0  0  0  0  0  0  0  0  0  0  0  0
   -2.4410   -1.3280  -17.9490 C   0  0  0  0  0  0  0  0  0  0  0  0
   -8.2200   -3.1200  -16.3980 C   0  0  0  0  0  0  0  0  0  0  0  0
   -4.8920   -1.7180  -17.7260 C   0  0  0  0  0  0  0  0  0  0  0  0
   -6.3100   -3.1740  -15.2920 C   0  0  0  0  0  0  0  0  0  0  0  0
   -6.7150   -0.9230  -19.7730 C   0  0  0  0  0  0  0  0  0  0  0  0
   -4.4820   -1.0270  -18.9140 C   0  0  0  0  0  0  0  0  0  0  0  0
   -9.2200   -2.9520  -17.3180 N   0  0  0  0  0  0  0  0  0  0  0  0
   -3.1270   -0.8600  -19.0050 N   0  0  0  0  0  0  0  0  0  0  0  0
   -7.1680   -3.8700  -14.6380 N   0  0  0  0  0  0  0  0  0  0  0  0
   -3.1940   -2.3360  -15.7590 C   0  0  0  0  0  0  0  0  0  0  0  0
   -5.3830   -0.6530  -19.8580 N   0  0  0  0  0  0  0  0  0  0  0  0
   -6.2970   -2.0730  -17.5370 C   0  0  0  0  0  0  0  0  0  0  0  0
   -0.7900   -1.8000  -16.2570 C   0  0  0  0  0  0  0  0  0  0  0  0
   -6.9030   -2.7430  -16.4720 C   0  0  0  0  0  0  0  0  0  0  0  0
   -8.3700   -3.9090  -15.2740 N   0  0  0  0  0  0  0  0  0  0  0  0
   -7.1540   -1.6210  -18.6410 C   0  0  0  0  0  0  0  0  0  0  0  0
   -1.8590   -2.2850  -15.4130 C   0  0  0  0  0  0  0  0  0  0  0  0
  1 15  4  0
  2 12  4  0
  3  1  4  0
  3  2  4  0
  4 17  4  0
  5 14  2  0
  5  2  1  0
  6 11  4  0
  7 18  1  0
  8  5  1  0
  9  4  1  0
 10  8  2  0
 10  3  1  0
 12 19  4  0
 13  7  2  0
 13  8  1  0
 14 16  1  0
 15 19  4  0
 16  4  4  0
 16  6  4  0
 17 11  4  0
 18 14  1  0
M  END
$$$$

     RDKit          3D

 19 22  0  0  0  0  0  0  0  0999 V2000
   -1.1480   -1.0630  -17.3650 C   0  0  0  0  0  0  0  0  0  0  0  0
   -3.5500   -1.9440  -17.0250 C   0  0  0  0  0  0  0  0  0  0  0  0
   -2.5580   -1.4070  -17.6900 C   0  0  0  0  0  0  0  0  0  0  0  0
   -8.2260   -3.0720  -16.4040 C   0  0  0  0  0  0  0  0  0  0  0  0
   -4.7710   -1.7620  -17.7090 C   0  0  0  0  0  0  0  0  0  0  0  0
   -6.1490   -3.0830  -15.4060 N   0  0  0  0  0  0  0  0  0  0  0  0
   -6.5600   -1.0340  -19.8120 C   0  0  0  0  0  0  0  0  0  0  0  0
   -4.4150   -1.0710  -18.9060 C   0  0  0  0  0  0  0  0  0  0  0  0
   -9.4000   -3.0300  -17.2890 C   0  0  0  0  0  0  0  0  0  0  0  0
   -3.0030   -0.8660  -18.8880 N   0  0  0  0  0  0  0  0  0  0  0  0
   -7.0150   -3.7340  -14.5620 N   0  0  0  0  0  0  0  0  0  0  0  0
   -3.1970   -2.7980  -15.7570 C   0  0  0  0  0  0  0  0  0  0  0  0
   -5.2310   -0.7560  -19.9670 C   0  0  0  0  0  0  0  0  0  0  0  0
   -6.2170   -2.0390  -17.6160 C   0  0  0  0  0  0  0  0  0  0  0  0
   -0.5010   -2.0200  -15.9540 S   0  0  0  0  0  0  0  0  0  0  0  0
   -6.8690   -2.6890  -16.4500 C   0  0  0  0  0  0  0  0  0  0  0  0
   -8.3530   -3.6930  -15.1680 N   0  0  0  0  0  0  0  0  0  0  0  0
   -7.0000   -1.6110  -18.6520 C   0  0  0  0  0  0  0  0  0  0  0  0
   -2.0110   -2.1140  -14.9810 C   0  0  0  0  0  0  0  0  0  0  0  0
  1 15  1  0
  2 12  1  0
  3  1  1  0
  3  2  1  0
  4 17  4  0
  5 14  4  0
  5  2  2  0
  6 11  4  0
  7 18  4  0
  8 10  2  0
  8  5  4  0
  9  4  1  0
 10  3  1  0
 12 19  1  0
 13  7  4  0
 13  8  4  0
 14 16  1  0
 15 19  1  0
 16  4  4  0
 16  6  4  0
 17 11  4  0
 18 14  4  0
M  END
$$$$

     RDKit          3D

 19 22  0  0  0  0  0  0  0  0999 V2000
   -1.1620   -1.2610  -17.0620 C   0  0  0  0  0  0  0  0  0  0  0  0
   -3.6430   -1.7820  -17.0370 C   0  0  0  0  0  0  0  0  0  0  0  0
   -2.4570   -1.3500  -17.7020 C   0  0  0  0  0  0  0  0  0  0  0  0
   -8.2730   -2.8590  -16.4890 N   0  0  0  0  0  0  0  0  0  0  0  0
   -4.8270   -1.6730  -17.8650 C   0  0  0  0  0  0  0  0  0  0  0  0
   -6.3420   -2.9540  -15.4550 N   0  0  0  0  0  0  0  0  0  0  0  0
   -6.6430   -0.7730  -19.9680 N   0  0  0  0  0  0  0  0  0  0  0  0
   -4.4950   -1.0560  -19.1270 C   0  0  0  0  0  0  0  0  0  0  0  0
   -9.3910   -2.5630  -17.3580 C   0  0  0  0  0  0  0  0  0  0  0  0
   -2.7650   -0.7420  -19.2990 S   0  0  0  0  0  0  0  0  0  0  0  0
   -7.3150   -3.5250  -14.6970 C   0  0  0  0  0  0  0  0  0  0  0  0
   -3.4890   -2.2660  -15.6810 C   0  0  0  0  0  0  0  0  0  0  0  0
   -5.3120   -0.6280  -20.1490 N   0  0  0  0  0  0  0  0  0  0  0  0
   -6.2540   -1.8460  -17.7570 C   0  0  0  0  0  0  0  0  0  0  0  0
   -1.0470   -1.7330  -15.6740 C   0  0  0  0  0  0  0  0  0  0  0  0
   -6.9350   -2.5000  -16.5710 C   0  0  0  0  0  0  0  0  0  0  0  0
   -8.4470   -3.4720  -15.2890 N   0  0  0  0  0  0  0  0  0  0  0  0
   -7.1030   -1.3300  -18.8470 C   0  0  0  0  0  0  0  0  0  0  0  0
   -2.2050   -2.2480  -15.0550 C   0  0  0  0  0  0  0  0  0  0  0  0
  1 15  4  0
  2 12  4  0
  3  1  4  0
  3  2  4  0
  4 17  4  0
  5 14  4  0
  5  2  4  0
  6 11  4  0
  7 18  4  0
  8  5  4  0
  9  4  1  0
 10  8  4  0
 10  3  4  0
 12 19  4  0
 13  7  4  0
 13  8  4  0
 14 16  1  0
 15 19  4  0
 16  4  4  0
 16  6  4  0
 17 11  4  0
 18 14  4  0
M  END
$$$$

     RDKit          3D

 19 22  0  0  0  0  0  0  0  0999 V2000
   -1.3680   -1.4050  -17.4280 C   0  0  0  0  0  0  0  0  0  0  0  0
   -3.7350   -1.8740  -17.1610 C   0  0  0  0  0  0  0  0  0  0  0  0
   -2.6790   -1.4150  -17.8430 C   0  0  0  0  0  0  0  0  0  0  0  0
   -8.3350   -2.9890  -16.6120 C   0  0  0  0  0  0  0  0  0  0  0  0
   -5.0120   -1.6270  -17.8930 C   0  0  0  0  0  0  0  0  0  0  0  0
   -6.3680   -3.0520  -15.5480 O   0  0  0  0  0  0  0  0  0  0  0  0
   -6.6930   -0.7860  -19.8490 C   0  0  0  0  0  0  0  0  0  0  0  0
   -4.5390   -1.0290  -19.0470 C   0  0  0  0  0  0  0  0  0  0  0  0
   -9.3030   -2.8170  -17.3660 O   0  0  0  0  0  0  0  0  0  0  0  0
   -3.1910   -0.8950  -19.0280 N   0  0  0  0  0  0  0  0  0  0  0  0
   -7.1760   -3.5840  -14.9140 N   0  0  0  0  0  0  0  0  0  0  0  0
   -3.4500   -2.4290  -15.8850 C   0  0  0  0  0  0  0  0  0  0  0  0
   -5.3730   -0.5700  -19.9750 N   0  0  0  0  0  0  0  0  0  0  0  0
   -6.4140   -1.8620  -17.8300 C   0  0  0  0  0  0  0  0  0  0  0  0
   -1.1130   -1.9720  -16.1460 C   0  0  0  0  0  0  0  0  0  0  0  0
   -7.0180   -2.5840  -16.7010 C   0  0  0  0  0  0  0  0  0  0  0  0
   -8.4710   -3.5610  -15.3740 N   0  0  0  0  0  0  0  0  0  0  0  0
   -7.1670   -1.3970  -18.7770 N   0  0  0  0  0  0  0  0  0  0  0  0
   -2.1630   -2.5440  -15.3950 C   0  0  0  0  0  0  0  0  0  0  0  0
  1 15  4  0
  2 12  4  0
  3  1  4  0
  3  2  4  0
  4 17  1  0
  5  8  1  0
  5 14  1  0
  5  2  1  0
  6 11  1  0
  7 18  1  0
  8 10  2  0
  9  4  2  0
 10  3  1  0
 12 19  4  0
 13  7  2  0
 13  8  1  0
 15 19  4  0
 16 14  1  0
 16  4  1  0
 16  6  1  0
 17 11  2  0
 18 14  2  0
M  END
$$$$

     RDKit          3D

 19 22  0  0  0  0  0  0  0  0999 V2000
   -1.3200   -1.5010  -17.0550 C   0  0  0  0  0  0  0  0  0  0  0  0
   -3.7600   -1.8510  -17.0150 C   0  0  0  0  0  0  0  0  0  0  0  0
   -2.5940   -1.3350  -17.6400 C   0  0  0  0  0  0  0  0  0  0  0  0
   -8.0890   -2.9920  -16.6290 C   0  0  0  0  0  0  0  0  0  0  0  0
   -4.7960   -1.5640  -17.9170 C   0  0  0  0  0  0  0  0  0  0  0  0
   -6.1680   -2.8310  -15.4470 C   0  0  0  0  0  0  0  0  0  0  0  0
   -6.4440   -0.8730  -19.9910 C   0  0  0  0  0  0  0  0  0  0  0  0
   -4.2420   -0.9600  -19.0380 C   0  0  0  0  0  0  0  0  0  0  0  0
   -9.2480   -2.8310  -17.4750 C   0  0  0  0  0  0  0  0  0  0  0  0
   -2.9720   -0.7830  -18.8270 N   0  0  0  0  0  0  0  0  0  0  0  0
   -7.0890   -3.4500  -14.6510 N   0  0  0  0  0  0  0  0  0  0  0  0
   -3.5940   -2.5030  -15.8230 C   0  0  0  0  0  0  0  0  0  0  0  0
   -5.0680   -0.6700  -20.0540 C   0  0  0  0  0  0  0  0  0  0  0  0
   -6.1440   -1.8450  -17.7980 C   0  0  0  0  0  0  0  0  0  0  0  0
   -1.2100   -2.1900  -15.8940 C   0  0  0  0  0  0  0  0  0  0  0  0
   -6.7580   -2.5110  -16.6630 C   0  0  0  0  0  0  0  0  0  0  0  0
   -8.2210   -3.5990  -15.3870 N   0  0  0  0  0  0  0  0  0  0  0  0
   -6.9400   -1.4730  -18.8970 C   0  0  0  0  0  0  0  0  0  0  0  0
   -2.3200   -2.6180  -15.2620 C   0  0  0  0  0  0  0  0  0  0  0  0
  1 15  1  0
  2 12  1  0
  3  1  2  0
  3  2  1  0
  4 17  4  0
  5 14  4  0
  5  2  2  0
  6 11  4  0
  7 18  4  0
  8 10  2  0
  8  5  4  0
  9  4  1  0
 10  3  1  0
 12 19  2  0
 13  7  4  0
 13  8  4  0
 14 16  1  0
 15 19  1  0
 16  4  4  0
 16  6  4  0
 17 11  4  0
 18 14  4  0
M  END
$$$$

     RDKit          3D

 19 22  0  0  0  0  0  0  0  0999 V2000
   -1.1230   -0.7890  -17.1080 C   0  0  0  0  0  0  0  0  0  0  0  0
   -3.4630   -1.7030  -17.0320 C   0  0  0  0  0  0  0  0  0  0  0  0
   -2.4000   -0.9930  -17.6950 C   0  0  0  0  0  0  0  0  0  0  0  0
   -8.2760   -3.0040  -16.4410 C   0  0  0  0  0  0  0  0  0  0  0  0
   -4.6820   -1.5610  -17.8500 C   0  0  0  0  0  0  0  0  0  0  0  0
   -6.3780   -3.0870  -15.3070 C   0  0  0  0  0  0  0  0  0  0  0  0
   -6.5980   -0.9800  -19.8660 C   0  0  0  0  0  0  0  0  0  0  0  0
   -4.4100   -0.8660  -19.0850 C   0  0  0  0  0  0  0  0  0  0  0  0
   -9.4740   -2.9050  -17.4570 C   0  0  0  0  0  0  0  0  0  0  0  0
   -2.7400   -0.5430  -19.2880 S   0  0  0  0  0  0  0  0  0  0  0  0
   -7.3250   -3.6980  -14.5820 N   0  0  0  0  0  0  0  0  0  0  0  0
   -3.1840   -2.3320  -15.7980 C   0  0  0  0  0  0  0  0  0  0  0  0
   -5.3330   -0.5950  -20.0200 C   0  0  0  0  0  0  0  0  0  0  0  0
   -6.0770   -1.9520  -17.7080 C   0  0  0  0  0  0  0  0  0  0  0  0
   -0.9720   -1.4390  -15.8500 C   0  0  0  0  0  0  0  0  0  0  0  0
   -6.8070   -2.6080  -16.5930 C   0  0  0  0  0  0  0  0  0  0  0  0
   -8.4790   -3.6120  -15.3730 N   0  0  0  0  0  0  0  0  0  0  0  0
   -6.9740   -1.5670  -18.7530 C   0  0  0  0  0  0  0  0  0  0  0  0
   -1.8960   -2.2200  -15.1870 C   0  0  0  0  0  0  0  0  0  0  0  0
  1 15  4  0
  2 12  4  0
  3  1  4  0
  3  2  4  0
  4 17  4  0
  5 14  4  0
  5  2  4  0
  6 11  4  0
  7 18  4  0
  8  5  4  0
  9  4  1  0
 10  8  4  0
 10  3  4  0
 12 19  4  0
 13  7  4  0
 13  8  4  0
 14 16  1  0
 15 19  4  0
 16  4  4  0
 16  6  4  0
 17 11  4  0
 18 14  4  0
M  END
$$$$

     RDKit          3D

 19 22  0  0  0  0  0  0  0  0999 V2000
   -1.3770   -0.7980  -16.8470 C   0  0  0  0  0  0  0  0  0  0  0  0
   -3.4740   -1.9010  -16.8390 C   0  0  0  0  0  0  0  0  0  0  0  0
   -2.4910   -1.1330  -17.4910 C   0  0  0  0  0  0  0  0  0  0  0  0
   -8.2050   -2.9360  -16.3840 C   0  0  0  0  0  0  0  0  0  0  0  0
   -4.7420   -1.6440  -17.7810 C   0  0  0  0  0  0  0  0  0  0  0  0
   -6.2710   -2.6490  -15.2750 C   0  0  0  0  0  0  0  0  0  0  0  0
   -6.5080   -0.8730  -19.9110 C   0  0  0  0  0  0  0  0  0  0  0  0
   -4.2740   -0.9160  -18.9460 C   0  0  0  0  0  0  0  0  0  0  0  0
   -9.4190   -2.9490  -17.1920 C   0  0  0  0  0  0  0  0  0  0  0  0
   -2.9610   -0.6120  -18.7050 N   0  0  0  0  0  0  0  0  0  0  0  0
   -7.0660   -3.4860  -14.5250 N   0  0  0  0  0  0  0  0  0  0  0  0
   -3.1090   -2.7460  -15.8330 C   0  0  0  0  0  0  0  0  0  0  0  0
   -5.2100   -0.5910  -19.9060 C   0  0  0  0  0  0  0  0  0  0  0  0
   -6.2110   -1.9270  -17.6970 C   0  0  0  0  0  0  0  0  0  0  0  0
   -0.9580   -1.6350  -15.7860 C   0  0  0  0  0  0  0  0  0  0  0  0
   -6.8730   -2.5420  -16.6110 C   0  0  0  0  0  0  0  0  0  0  0  0
   -8.2580   -3.5520  -15.1390 N   0  0  0  0  0  0  0  0  0  0  0  0
   -7.0020   -1.5510  -18.8020 C   0  0  0  0  0  0  0  0  0  0  0  0
   -1.8690   -2.5870  -15.3230 C   0  0  0  0  0  0  0  0  0  0  0  0
  1 15  1  0
  2 12  1  0
  3  1  2  0
  3  2  1  0
  4 17  1  0
  5 14  4  0
  5  2  2  0
  6 11  1  0
  7 13  4  0
  7 18  4  0
  8 10  2  0
  8  5  4  0
  9  4  1  0
 10  3  1  0
 12 19  2  0
 13  8  4  0
 14 16  1  0
 15 19  1  0
 16  4  2  0
 16  6  1  0
 17 11  1  0
 18 14  4  0
M  END
$$$$

     RDKit          3D

 19 22  0  0  0  0  0  0  0  0999 V2000
   -1.5240   -1.1130  -17.2510 C   0  0  0  0  0  0  0  0  0  0  0  0
   -3.8270   -1.7180  -17.0550 C   0  0  0  0  0  0  0  0  0  0  0  0
   -2.8150   -1.2270  -17.8120 C   0  0  0  0  0  0  0  0  0  0  0  0
   -8.3210   -2.8940  -16.4030 C   0  0  0  0  0  0  0  0  0  0  0  0
   -5.0910   -1.5850  -17.8990 C   0  0  0  0  0  0  0  0  0  0  0  0
   -6.2980   -2.9630  -15.6160 N   0  0  0  0  0  0  0  0  0  0  0  0
   -6.9010   -0.8500  -19.9160 C   0  0  0  0  0  0  0  0  0  0  0  0
   -4.6410   -0.9870  -19.1200 C   0  0  0  0  0  0  0  0  0  0  0  0
   -9.3420   -2.6430  -17.0290 O   0  0  0  0  0  0  0  0  0  0  0  0
   -3.2850   -0.8640  -19.0790 N   0  0  0  0  0  0  0  0  0  0  0  0
   -7.0820   -3.6510  -14.8300 O   0  0  0  0  0  0  0  0  0  0  0  0
   -3.5530   -2.1390  -15.7830 C   0  0  0  0  0  0  0  0  0  0  0  0
   -5.5070   -0.5810  -20.1370 C   0  0  0  0  0  0  0  0  0  0  0  0
   -6.4780   -1.8470  -17.8110 C   0  0  0  0  0  0  0  0  0  0  0  0
   -1.2760   -1.3700  -15.9890 C   0  0  0  0  0  0  0  0  0  0  0  0
   -6.9910   -2.5240  -16.6850 C   0  0  0  0  0  0  0  0  0  0  0  0
   -8.3740   -3.6180  -15.2200 N   0  0  0  0  0  0  0  0  0  0  0  0
   -7.2830   -1.4170  -18.8110 C   0  0  0  0  0  0  0  0  0  0  0  0
   -2.2380   -2.0050  -15.2220 C   0  0  0  0  0  0  0  0  0  0  0  0
  1 15  1  0
  2 12  1  0
  3  1  2  0
  3  2  1  0
  4 17  4  0
  5 14  4  0
  5  2  2  0
  6 11  4  0
  7 18  4  0
  8 10  2  0
  8  5  4  0
  9  4  2  0
 10  3  1  0
 12 19  2  0
 13  7  4  0
 13  8  4  0
 14 16  1  0
 15 19  1  0
 16  4  4  0
 16  6  4  0
 17 11  4  0
 18 14  4  0
M  END
$$$$
