
     RDKit          3D

 18 20  0  0  0  0  0  0  0  0999 V2000
    9.4550  -34.3720  -32.4560 C   0  0  0  0  0  0  0  0  0  0  0  0
    9.3670  -35.7130  -33.2390 C   0  0  0  0  0  0  0  0  0  0  0  0
    7.1460  -34.8690  -34.3240 C   0  0  0  0  0  0  0  0  0  0  0  0
    5.8370  -34.3480  -34.6720 C   0  0  0  0  0  0  0  0  0  0  0  0
    8.8570  -36.3000  -34.1370 C   0  0  0  0  0  0  0  0  0  0  0  0
    6.0470  -35.9500  -36.6150 C   0  0  0  0  0  0  0  0  0  0  0  0
    7.8760  -33.8010  -33.1230 C   0  0  0  0  0  0  0  0  0  0  0  0
    9.0440  -34.6060  -33.2030 C   0  0  0  0  0  0  0  0  0  0  0  0
    9.6380  -34.7670  -31.7570 C   0  0  0  0  0  0  0  0  0  0  0  0
    7.7720  -35.9430  -34.8390 C   0  0  0  0  0  0  0  0  0  0  0  0
    4.0250  -34.7490  -36.1310 N   0  0  0  0  0  0  0  0  0  0  0  0
    3.1170  -33.7830  -35.4450 C   0  0  0  0  0  0  0  0  0  0  0  0
    2.3460  -34.1270  -36.2630 C   0  0  0  0  0  0  0  0  0  0  0  0
    9.5080  -33.1060  -31.8930 C   0  0  0  0  0  0  0  0  0  0  0  0
    5.2800  -35.0210  -35.8920 C   0  0  0  0  0  0  0  0  0  0  0  0
    7.1810  -36.3970  -36.1130 C   0  0  0  0  0  0  0  0  0  0  0  0
    2.2450  -33.8240  -36.8470 C   0  0  0  0  0  0  0  0  0  0  0  0
    3.7850  -33.9370  -36.9660 C   0  0  0  0  0  0  0  0  0  0  0  0
  1 14  1  0
  1  9  2  0
  2  8  1  0
  3  7  1  0
  4  3  4  0
  5  2  1  0
  6 16  4  0
  6 15  4  0
  8  7  1  0
  8  1  1  0
 10  3  4  0
 10  5  1  0
 11 15  1  0
 11 12  1  0
 13 12  1  0
 15  4  4  0
 16 10  4  0
 17 13  1  0
 18 17  1  0
 18 11  1  0
M  END
$$$$

     RDKit          3D

 28 31  0  0  0  0  0  0  0  0999 V2000
    8.6280  -33.2120  -32.3680 C   0  0  0  0  0  0  0  0  0  0  0  0
   10.4240  -34.0060  -33.1630 O   0  0  0  0  0  0  0  0  0  0  0  0
    9.0590  -35.7130  -33.9960 C   0  0  0  0  0  0  0  0  0  0  0  0
   10.0150  -33.3720  -29.9210 C   0  0  0  0  0  0  0  0  0  0  0  0
    6.3550  -33.1110  -33.3800 N   0  0  0  0  0  0  0  0  0  0  0  0
   10.6470  -32.8020  -28.7090 C   0  0  0  0  0  0  0  0  0  0  0  0
    1.6900  -34.7670  -39.4920 O   0  0  0  0  0  0  0  0  0  0  0  0
    3.7900  -34.7920  -35.4630 C   0  0  0  0  0  0  0  0  0  0  0  0
    4.6340  -34.0000  -34.7120 C   0  0  0  0  0  0  0  0  0  0  0  0
    7.8920  -33.7660  -33.3400 C   0  0  0  0  0  0  0  0  0  0  0  0
    6.2170  -35.3230  -36.2630 C   0  0  0  0  0  0  0  0  0  0  0  0
   10.9480  -33.7350  -30.8250 C   0  0  0  0  0  0  0  0  0  0  0  0
    5.8300  -34.0690  -34.4440 N   0  0  0  0  0  0  0  0  0  0  0  0
    2.6360  -34.0350  -38.9850 C   0  0  0  0  0  0  0  0  0  0  0  0
   12.2660  -33.8020  -30.8330 C   0  0  0  0  0  0  0  0  0  0  0  0
   10.9120  -35.9710  -33.3080 C   0  0  0  0  0  0  0  0  0  0  0  0
    3.2400  -34.7160  -37.8850 C   0  0  0  0  0  0  0  0  0  0  0  0
   10.2280  -34.3590  -32.2830 C   0  0  0  0  0  0  0  0  0  0  0  0
    9.9680  -34.8500  -33.3610 C   0  0  0  0  0  0  0  0  0  0  0  0
    7.7470  -34.7810  -34.1470 C   0  0  0  0  0  0  0  0  0  0  0  0
   12.4820  -32.0460  -27.5960 N   0  0  0  0  0  0  0  0  0  0  0  0
   12.0300  -32.7210  -28.6630 C   0  0  0  0  0  0  0  0  0  0  0  0
    2.9450  -33.0200  -39.4480 O   0  0  0  0  0  0  0  0  0  0  0  0
    3.0220  -35.0400  -36.5000 C   0  0  0  0  0  0  0  0  0  0  0  0
    4.7350  -34.5910  -38.0720 C   0  0  0  0  0  0  0  0  0  0  0  0
   12.8470  -33.2450  -29.5660 C   0  0  0  0  0  0  0  0  0  0  0  0
    6.7200  -34.8750  -34.9300 C   0  0  0  0  0  0  0  0  0  0  0  0
    5.5740  -34.7600  -37.0950 C   0  0  0  0  0  0  0  0  0  0  0  0
  2 18  1  0
  3 19  1  0
  4  6  4  0
  5 10  1  0
  6 22  4  0
  7 14  2  0
  8  9  1  0
 10  1  1  0
 12  4  4  0
 13  9  1  0
 13  5  1  0
 15 12  4  0
 15 26  4  0
 17 14  1  0
 17 24  1  0
 18 12  1  0
 19 16  1  0
 19  2  1  0
 19 18  1  0
 20  3  1  0
 20 10  2  0
 22 21  1  0
 23 14  1  0
 24  8  1  0
 25 17  1  0
 25 28  2  0
 26 22  4  0
 27 11  1  0
 27 13  1  0
 27 20  1  0
 28 11  2  0
M  END
$$$$

     RDKit          3D

 37 43  0  0  0  0  0  0  0  0999 V2000
    3.8490  -33.8500  -35.8490 C   0  0  0  0  0  0  0  0  0  0  0  0
   11.9650  -33.1970  -30.0650 C   0  0  0  0  0  0  0  0  0  0  0  0
   14.6620  -34.3750  -26.5220 C   0  0  0  0  0  0  0  0  0  0  0  0
   13.7470  -33.9760  -28.8200 N   0  0  0  0  0  0  0  0  0  0  0  0
   11.0620  -34.3090  -32.3300 C   0  0  0  0  0  0  0  0  0  0  0  0
    7.8080  -32.4120  -32.7960 C   0  0  0  0  0  0  0  0  0  0  0  0
    1.7620  -33.2470  -36.9180 C   0  0  0  0  0  0  0  0  0  0  0  0
   -0.4180  -33.8400  -37.7960 F   0  0  0  0  0  0  0  0  0  0  0  0
    7.2510  -33.7060  -33.5540 C   0  0  0  0  0  0  0  0  0  0  0  0
    9.7770  -34.6610  -33.4880 C   0  0  0  0  0  0  0  0  0  0  0  0
   12.5770  -33.1680  -28.9840 N   0  0  0  0  0  0  0  0  0  0  0  0
    8.5670  -37.4030  -34.1100 C   0  0  0  0  0  0  0  0  0  0  0  0
    8.6800  -35.4870  -35.5590 C   0  0  0  0  0  0  0  0  0  0  0  0
    6.6810  -32.0020  -31.7080 C   0  0  0  0  0  0  0  0  0  0  0  0
    3.7320  -33.2120  -34.6300 C   0  0  0  0  0  0  0  0  0  0  0  0
    4.8480  -33.2450  -33.8170 C   0  0  0  0  0  0  0  0  0  0  0  0
    6.8180  -36.1550  -35.1860 C   0  0  0  0  0  0  0  0  0  0  0  0
    7.6660  -35.9690  -34.0720 C   0  0  0  0  0  0  0  0  0  0  0  0
    5.0810  -34.4650  -36.1670 C   0  0  0  0  0  0  0  0  0  0  0  0
   12.0910  -32.4910  -27.9940 C   0  0  0  0  0  0  0  0  0  0  0  0
   13.8880  -33.6560  -27.4480 C   0  0  0  0  0  0  0  0  0  0  0  0
    1.5440  -34.5430  -38.6390 C   0  0  0  0  0  0  0  0  0  0  0  0
   12.8960  -32.7180  -26.9660 C   0  0  0  0  0  0  0  0  0  0  0  0
   12.4460  -33.3760  -32.4420 C   0  0  0  0  0  0  0  0  0  0  0  0
    1.1620  -32.7140  -35.9630 O   0  0  0  0  0  0  0  0  0  0  0  0
    8.4210  -34.8680  -33.5440 C   0  0  0  0  0  0  0  0  0  0  0  0
   15.6490  -34.2040  -25.8330 O   0  0  0  0  0  0  0  0  0  0  0  0
   10.7700  -33.0560  -30.4690 C   0  0  0  0  0  0  0  0  0  0  0  0
    9.1590  -32.4830  -32.4050 C   0  0  0  0  0  0  0  0  0  0  0  0
    5.9480  -33.9070  -34.1980 C   0  0  0  0  0  0  0  0  0  0  0  0
   12.3900  -34.2040  -31.1600 C   0  0  0  0  0  0  0  0  0  0  0  0
    5.9000  -34.7920  -35.2580 C   0  0  0  0  0  0  0  0  0  0  0  0
    2.8620  -33.8580  -36.8290 N   0  0  0  0  0  0  0  0  0  0  0  0
    2.9790  -34.8380  -38.1350 C   0  0  0  0  0  0  0  0  0  0  0  0
   11.1290  -31.7010  -27.8310 O   0  0  0  0  0  0  0  0  0  0  0  0
    1.1580  -33.2960  -38.2080 C   0  0  0  0  0  0  0  0  0  0  0  0
   10.2000  -33.2970  -31.8270 C   0  0  0  0  0  0  0  0  0  0  0  0
  1 15  4  0
  2 28  1  0
  2 11  1  0
  3 27  2  0
  4 21  4  0
  5 10  1  0
  5 37  1  0
  5 31  1  0
  6 29  1  0
  6 14  1  0
  7 33  1  0
  7 25  2  0
  9 30  1  0
  9 26  1  0
  9  6  1  0
 11  4  4  0
 11 20  4  0
 12 18  1  0
 13 18  1  0
 15 16  4  0
 17 18  1  0
 18 26  1  0
 19  1  4  0
 19 32  4  0
 20 35  2  0
 20 23  4  0
 21 23  4  0
 21  3  1  0
 22 36  1  0
 22 34  1  0
 24  5  1  0
 26 10  1  0
 30 16  4  0
 31 24  1  0
 31  2  1  0
 32 17  1  0
 32 30  4  0
 33  1  1  0
 34 33  1  0
 36  8  1  0
 36  7  1  0
 37 29  1  0
 37 28  1  0
M  END
$$$$

     RDKit          3D

 27 31  0  0  0  0  0  0  0  0999 V2000
    7.7990  -32.7900  -32.3840 C   0  0  0  0  0  0  0  0  0  0  0  0
    7.2690  -33.2570  -33.1480 C   0  0  0  0  0  0  0  0  0  0  0  0
    9.2930  -35.3380  -34.2260 C   0  0  0  0  0  0  0  0  0  0  0  0
    9.8600  -33.4610  -32.1900 C   0  0  0  0  0  0  0  0  0  0  0  0
    6.7630  -34.7810  -35.7670 O   0  0  0  0  0  0  0  0  0  0  0  0
    7.7840  -34.4190  -33.6930 C   0  0  0  0  0  0  0  0  0  0  0  0
    7.2830  -34.4820  -33.7410 C   0  0  0  0  0  0  0  0  0  0  0  0
    9.6320  -32.9950  -31.0530 C   0  0  0  0  0  0  0  0  0  0  0  0
    8.6800  -33.8390  -32.8700 C   0  0  0  0  0  0  0  0  0  0  0  0
   12.0350  -33.5980  -31.6160 C   0  0  0  0  0  0  0  0  0  0  0  0
   11.0790  -33.4410  -32.4940 C   0  0  0  0  0  0  0  0  0  0  0  0
   11.8050  -33.3940  -30.4280 C   0  0  0  0  0  0  0  0  0  0  0  0
    7.2730  -35.6140  -34.9380 C   0  0  0  0  0  0  0  0  0  0  0  0
    7.7150  -32.1870  -31.4250 C   0  0  0  0  0  0  0  0  0  0  0  0
    6.0740  -33.8980  -33.7020 C   0  0  0  0  0  0  0  0  0  0  0  0
    7.7780  -31.5980  -30.7110 O   0  0  0  0  0  0  0  0  0  0  0  0
    7.0250  -34.6290  -34.8950 C   0  0  0  0  0  0  0  0  0  0  0  0
    4.3960  -32.1920  -32.7420 C   0  0  0  0  0  0  0  0  0  0  0  0
    4.2670  -33.2200  -33.4700 C   0  0  0  0  0  0  0  0  0  0  0  0
    4.8550  -33.7810  -33.8780 N   0  0  0  0  0  0  0  0  0  0  0  0
   10.0300  -36.0460  -33.3420 F   0  0  0  0  0  0  0  0  0  0  0  0
    8.4750  -36.5580  -34.9370 C   0  0  0  0  0  0  0  0  0  0  0  0
    5.0910  -30.8590  -31.3710 O   0  0  0  0  0  0  0  0  0  0  0  0
   10.5360  -33.1550  -30.2430 C   0  0  0  0  0  0  0  0  0  0  0  0
   10.1620  -34.8340  -35.0480 F   0  0  0  0  0  0  0  0  0  0  0  0
    6.8680  -32.2020  -32.1320 C   0  0  0  0  0  0  0  0  0  0  0  0
    5.4970  -31.8470  -32.1570 C   0  0  0  0  0  0  0  0  0  0  0  0
  1  2  1  0
  1 26  1  0
  1 14  1  0
  3 21  1  0
  4  8  1  0
  5 13  1  0
  6  9  1  0
  7 15  1  0
  7  6  1  0
  7  2  1  0
  8 24  1  0
  9  1  1  0
  9  4  1  0
 10 12  1  0
 11  4  1  0
 11 10  1  0
 12 24  1  0
 13 22  1  0
 13 17  1  0
 14 16  2  0
 17  5  1  0
 17  7  1  0
 18 27  2  3
 19 18  1  0
 20 15  1  0
 20 19  2  3
 22  3  1  0
 25  3  1  0
 26 27  1  0
 26 14  1  0
 27 23  1  0
M  END
$$$$

     RDKit          3D

 31 34  0  0  0  0  0  0  0  0999 V2000
   10.2860  -35.0200  -30.4410 F   0  0  0  0  0  0  0  0  0  0  0  0
    9.5270  -35.4230  -33.9500 C   0  0  0  0  0  0  0  0  0  0  0  0
    4.3780  -33.4540  -34.8190 C   0  0  0  0  0  0  0  0  0  0  0  0
    3.6090  -34.6150  -34.8300 C   0  0  0  0  0  0  0  0  0  0  0  0
    7.5520  -31.0490  -30.8330 O   0  0  0  0  0  0  0  0  0  0  0  0
   11.3970  -32.2280  -30.3950 C   0  0  0  0  0  0  0  0  0  0  0  0
    3.4300  -32.0680  -32.6140 O   0  0  0  0  0  0  0  0  0  0  0  0
    8.5660  -33.5880  -32.2860 N   0  0  0  0  0  0  0  0  0  0  0  0
    6.7200  -34.5940  -35.8560 O   0  0  0  0  0  0  0  0  0  0  0  0
    9.9790  -32.7140  -30.6780 C   0  0  0  0  0  0  0  0  0  0  0  0
    7.6790  -35.0340  -35.2690 C   0  0  0  0  0  0  0  0  0  0  0  0
    8.2600  -34.6940  -34.1230 C   0  0  0  0  0  0  0  0  0  0  0  0
    8.2570  -35.9150  -35.9580 O   0  0  0  0  0  0  0  0  0  0  0  0
    6.4740  -33.3460  -33.3130 C   0  0  0  0  0  0  0  0  0  0  0  0
   10.6370  -35.1180  -33.1210 O   0  0  0  0  0  0  0  0  0  0  0  0
    4.6790  -32.2950  -32.6790 C   0  0  0  0  0  0  0  0  0  0  0  0
   12.5460  -33.4990  -28.9790 O   0  0  0  0  0  0  0  0  0  0  0  0
    6.7810  -32.5290  -32.2300 C   0  0  0  0  0  0  0  0  0  0  0  0
   11.7620  -33.4230  -30.2020 C   0  0  0  0  0  0  0  0  0  0  0  0
    6.7210  -31.6850  -31.5080 C   0  0  0  0  0  0  0  0  0  0  0  0
    9.7580  -33.2120  -31.8980 C   0  0  0  0  0  0  0  0  0  0  0  0
    7.6880  -33.8400  -33.3670 C   0  0  0  0  0  0  0  0  0  0  0  0
   12.6020  -34.0760  -31.3230 C   0  0  0  0  0  0  0  0  0  0  0  0
   10.5940  -33.7460  -30.0320 C   0  0  0  0  0  0  0  0  0  0  0  0
   10.7580  -33.5700  -32.9010 C   0  0  0  0  0  0  0  0  0  0  0  0
    9.7270  -36.3310  -34.0810 C   0  0  0  0  0  0  0  0  0  0  0  0
   10.0690  -33.8350  -28.7900 F   0  0  0  0  0  0  0  0  0  0  0  0
    9.2190  -37.0480  -32.9060 C   0  0  0  0  0  0  0  0  0  0  0  0
    5.5010  -31.7370  -31.7040 N   0  0  0  0  0  0  0  0  0  0  0  0
   12.1710  -33.4010  -32.5880 C   0  0  0  0  0  0  0  0  0  0  0  0
    5.1370  -33.1050  -33.6190 C   0  0  0  0  0  0  0  0  0  0  0  0
  1 24  1  0
  2 26  1  0
  2 15  1  0
  4  3  1  0
  6 19  1  0
  9 11  1  0
 10  6  1  0
 10 24  1  0
 12 11  1  0
 12  2  1  0
 12 22  1  0
 13 11  2  0
 14 18  2  0
 15 25  1  0
 16  7  2  0
 16 29  1  0
 18 20  2  0
 19 24  1  0
 19 17  1  0
 20  5  2  0
 21  8  1  0
 21 10  1  0
 22 14  1  0
 22  8  1  0
 23 19  1  0
 24 27  1  0
 25 30  1  0
 25 21  1  0
 26 28  1  0
 29 20  1  0
 30 23  1  0
 31  3  1  0
 31 14  1  0
 31 16  1  0
M  END
$$$$

     RDKit          3D

 35 38  0  0  0  0  0  0  0  0999 V2000
   10.8170  -31.9800  -29.0520 N   0  0  0  0  0  0  0  0  0  0  0  0
    4.5440  -32.9090  -33.0910 O   0  0  0  0  0  0  0  0  0  0  0  0
    7.7790  -33.3960  -32.4950 N   0  0  0  0  0  0  0  0  0  0  0  0
    5.7510  -31.1840  -31.1900 N   0  0  0  0  0  0  0  0  0  0  0  0
    2.7660  -34.9280  -36.4290 C   0  0  0  0  0  0  0  0  0  0  0  0
    7.2750  -34.6900  -34.7060 C   0  0  0  0  0  0  0  0  0  0  0  0
   11.8250  -33.3070  -30.6140 C   0  0  0  0  0  0  0  0  0  0  0  0
   11.9570  -32.5730  -29.3780 C   0  0  0  0  0  0  0  0  0  0  0  0
    9.1190  -34.9020  -33.4180 C   0  0  0  0  0  0  0  0  0  0  0  0
    6.4800  -31.8170  -31.4890 C   0  0  0  0  0  0  0  0  0  0  0  0
    5.7700  -35.3390  -35.2070 C   0  0  0  0  0  0  0  0  0  0  0  0
    4.0050  -31.1870  -31.2430 C   0  0  0  0  0  0  0  0  0  0  0  0
   11.6940  -33.8660  -32.3210 C   0  0  0  0  0  0  0  0  0  0  0  0
    3.6770  -34.8890  -35.4770 C   0  0  0  0  0  0  0  0  0  0  0  0
   11.6480  -35.3320  -34.2610 C   0  0  0  0  0  0  0  0  0  0  0  0
    7.3700  -31.9400  -31.1990 N   0  0  0  0  0  0  0  0  0  0  0  0
   10.0370  -35.0020  -34.2910 O   0  0  0  0  0  0  0  0  0  0  0  0
    4.9460  -35.1510  -35.0100 C   0  0  0  0  0  0  0  0  0  0  0  0
   13.0540  -34.8590  -33.7990 C   0  0  0  0  0  0  0  0  0  0  0  0
    1.9130  -31.1980  -31.2560 C   0  0  0  0  0  0  0  0  0  0  0  0
    2.7190  -31.8140  -30.3610 O   0  0  0  0  0  0  0  0  0  0  0  0
    3.2710  -34.6930  -37.7440 C   0  0  0  0  0  0  0  0  0  0  0  0
    4.3210  -32.2310  -32.1150 C   0  0  0  0  0  0  0  0  0  0  0  0
    9.8020  -32.7840  -31.0730 C   0  0  0  0  0  0  0  0  0  0  0  0
    8.4000  -32.3200  -31.5380 C   0  0  0  0  0  0  0  0  0  0  0  0
   12.3030  -33.7440  -33.0210 C   0  0  0  0  0  0  0  0  0  0  0  0
    3.8460  -31.6620  -29.8700 C   0  0  0  0  0  0  0  0  0  0  0  0
   10.7490  -33.2850  -31.4460 C   0  0  0  0  0  0  0  0  0  0  0  0
    4.5940  -34.7230  -37.7910 C   0  0  0  0  0  0  0  0  0  0  0  0
    9.7770  -32.0360  -29.7500 C   0  0  0  0  0  0  0  0  0  0  0  0
    7.5790  -33.8720  -33.4440 C   0  0  0  0  0  0  0  0  0  0  0  0
    7.3270  -35.6940  -34.8740 C   0  0  0  0  0  0  0  0  0  0  0  0
    5.6310  -34.9030  -37.0880 C   0  0  0  0  0  0  0  0  0  0  0  0
    8.3590  -34.5050  -33.0160 C   0  0  0  0  0  0  0  0  0  0  0  0
   10.7190  -35.6320  -33.9750 C   0  0  0  0  0  0  0  0  0  0  0  0
  2 23  1  0
  3 25  1  0
  5 14  1  0
  6 31  1  0
  7  8  4  0
  8  1  4  0
  9 34  1  0
 10 16  1  0
 10  4  1  0
 11 18  1  0
 11 32  1  0
 12  4  1  0
 12 27  1  0
 13 28  1  0
 13  7  1  0
 14 18  1  0
 15 35  1  0
 15 19  1  0
 17 35  1  0
 17  9  1  0
 19 26  1  0
 20 21  1  0
 21 27  1  0
 22  5  1  0
 23 12  1  0
 24 30  4  0
 25 16  1  0
 25 24  1  0
 26 13  1  0
 28 24  4  0
 28  7  4  0
 29 22  1  0
 29 33  2  0
 30  1  4  0
 31 34  1  0
 31  3  1  0
 32  6  1  0
 34  3  1  0
M  END
$$$$

     RDKit          3D

  6  6  0  0  0  0  0  0  0  0999 V2000
    9.4920  -36.3770  -33.3470 C   0  0  0  0  0  0  0  0  0  0  0  0
    8.0480  -33.9720  -33.3960 C   0  0  0  0  0  0  0  0  0  0  0  0
   10.0330  -35.1630  -32.8610 O   0  0  0  0  0  0  0  0  0  0  0  0
    9.0430  -33.9710  -32.6080 C   0  0  0  0  0  0  0  0  0  0  0  0
    8.2620  -36.2910  -34.2390 C   0  0  0  0  0  0  0  0  0  0  0  0
    7.0280  -34.8460  -34.1490 C   0  0  0  0  0  0  0  0  0  0  0  0
  1  3  1  0
  2  4  1  0
  3  4  1  0
  5  6  1  0
  5  1  1  0
  6  2  1  0
M  END
$$$$

     RDKit          3D

 25 30  0  0  0  0  0  0  0  0999 V2000
    9.4940  -33.4510  -32.5340 C   0  0  0  0  0  0  0  0  0  0  0  0
    8.7720  -34.1480  -33.3520 C   0  0  0  0  0  0  0  0  0  0  0  0
    9.6050  -34.6240  -33.4960 C   0  0  0  0  0  0  0  0  0  0  0  0
    7.3170  -35.0410  -34.6170 C   0  0  0  0  0  0  0  0  0  0  0  0
   11.6030  -33.7690  -31.8550 C   0  0  0  0  0  0  0  0  0  0  0  0
   10.4810  -33.4420  -31.5270 C   0  0  0  0  0  0  0  0  0  0  0  0
    6.3780  -33.1340  -33.1520 C   0  0  0  0  0  0  0  0  0  0  0  0
   11.0110  -35.1460  -33.7500 C   0  0  0  0  0  0  0  0  0  0  0  0
   11.9100  -34.2230  -33.0620 C   0  0  0  0  0  0  0  0  0  0  0  0
    3.8550  -31.4900  -31.3910 C   0  0  0  0  0  0  0  0  0  0  0  0
    5.0690  -31.9860  -31.8590 C   0  0  0  0  0  0  0  0  0  0  0  0
    8.4270  -35.6500  -34.7610 C   0  0  0  0  0  0  0  0  0  0  0  0
    6.3620  -31.6550  -31.4040 C   0  0  0  0  0  0  0  0  0  0  0  0
    2.7590  -31.7720  -32.1960 C   0  0  0  0  0  0  0  0  0  0  0  0
    2.8490  -32.5320  -33.3040 C   0  0  0  0  0  0  0  0  0  0  0  0
   10.1960  -32.8470  -30.4580 O   0  0  0  0  0  0  0  0  0  0  0  0
   12.5540  -33.4370  -31.4390 F   0  0  0  0  0  0  0  0  0  0  0  0
    5.1650  -32.8390  -32.9220 C   0  0  0  0  0  0  0  0  0  0  0  0
    8.3770  -33.1690  -31.9760 O   0  0  0  0  0  0  0  0  0  0  0  0
    1.6500  -31.1770  -31.8430 O   0  0  0  0  0  0  0  0  0  0  0  0
    7.3380  -34.0030  -33.7360 C   0  0  0  0  0  0  0  0  0  0  0  0
    9.5690  -35.5030  -34.5940 C   0  0  0  0  0  0  0  0  0  0  0  0
    7.1740  -32.4270  -32.2420 C   0  0  0  0  0  0  0  0  0  0  0  0
   13.1040  -34.3650  -33.2130 F   0  0  0  0  0  0  0  0  0  0  0  0
    4.0510  -33.1330  -33.6520 C   0  0  0  0  0  0  0  0  0  0  0  0
  1  2  1  0
  1 19  1  0
  1  6  1  0
  3  2  1  0
  4 21  1  0
  5  6  1  0
  5 17  1  0
  6 16  2  0
  7 18  2  0
  7 23  1  0
  8  3  1  0
  8  9  1  0
  9  5  1  0
 11 13  2  0
 11 10  4  0
 12  4  1  0
 12 22  1  0
 14 20  1  0
 14 10  4  0
 15 14  4  0
 18 11  4  0
 21  2  2  0
 21  7  1  0
 22  8  1  0
 22  3  1  0
 23 19  1  0
 23 13  1  0
 24  9  1  0
 25 15  4  0
 25 18  4  0
M  END
$$$$

     RDKit          3D

 23 27  0  0  0  0  0  0  0  0999 V2000
    8.7900  -33.8420  -32.6580 C   0  0  0  0  0  0  0  0  0  0  0  0
    5.6210  -31.9330  -31.8170 C   0  0  0  0  0  0  0  0  0  0  0  0
   10.1750  -35.8240  -33.6450 C   0  0  0  0  0  0  0  0  0  0  0  0
   11.1480  -33.8610  -31.8440 C   0  0  0  0  0  0  0  0  0  0  0  0
    6.9780  -32.2530  -31.8460 C   0  0  0  0  0  0  0  0  0  0  0  0
    3.6840  -33.1950  -32.5810 C   0  0  0  0  0  0  0  0  0  0  0  0
    8.7310  -34.2680  -33.7870 C   0  0  0  0  0  0  0  0  0  0  0  0
    9.2250  -32.5190  -30.8980 C   0  0  0  0  0  0  0  0  0  0  0  0
   10.4110  -36.2460  -34.0930 C   0  0  0  0  0  0  0  0  0  0  0  0
    9.1130  -34.6820  -31.7930 C   0  0  0  0  0  0  0  0  0  0  0  0
    3.4640  -32.1300  -32.9080 O   0  0  0  0  0  0  0  0  0  0  0  0
    9.2540  -34.0010  -32.4360 C   0  0  0  0  0  0  0  0  0  0  0  0
    4.7150  -32.0910  -33.0300 C   0  0  0  0  0  0  0  0  0  0  0  0
   11.4240  -34.2990  -33.0580 C   0  0  0  0  0  0  0  0  0  0  0  0
   10.4160  -33.4850  -31.3440 C   0  0  0  0  0  0  0  0  0  0  0  0
   10.5940  -34.8130  -32.6890 C   0  0  0  0  0  0  0  0  0  0  0  0
    9.8470  -35.7800  -34.1360 C   0  0  0  0  0  0  0  0  0  0  0  0
    4.5500  -32.4200  -30.6880 C   0  0  0  0  0  0  0  0  0  0  0  0
    8.1400  -32.2100  -31.3110 C   0  0  0  0  0  0  0  0  0  0  0  0
   10.5160  -35.7400  -34.6650 C   0  0  0  0  0  0  0  0  0  0  0  0
    4.5340  -31.8210  -30.9280 C   0  0  0  0  0  0  0  0  0  0  0  0
    7.8710  -32.7520  -32.9420 S   0  0  0  0  0  0  0  0  0  0  0  0
   10.0090  -32.8660  -30.3220 C   0  0  0  0  0  0  0  0  0  0  0  0
  1 12  1  0
  2 21  1  0
  3 16  1  0
  4 15  1  0
  5  2  1  0
  5 19  1  0
  7  1  1  0
  8 23  1  0
  9 20  1  0
  9  3  1  0
 11  6  1  0
 12 10  1  0
 13 11  1  0
 13  6  1  0
 13  2  1  0
 14 16  1  0
 14  4  1  0
 15 23  1  0
 16 12  1  0
 16  4  1  0
 17 20  1  0
 17  9  1  0
 17  3  1  0
 19  8  1  0
 21 18  1  0
 22  5  1  0
 22 19  1  0
M  END
$$$$

     RDKit          3D

  1  0  0  0  0  0  0  0  0  0999 V2000
   10.3040  -33.3810  -30.5810 Cl  0  0  0  0  0  0  0  0  0  0  0  0
M  END
$$$$

     RDKit          3D

  9  9  0  0  0  0  0  0  0  0999 V2000
    8.1470  -34.7530  -33.7950 C   0  0  0  0  0  0  0  0  0  0  0  0
    7.4060  -32.5390  -32.3980 C   0  0  0  0  0  0  0  0  0  0  0  0
    6.9440  -34.2600  -33.9800 C   0  0  0  0  0  0  0  0  0  0  0  0
    8.6530  -33.0990  -32.2410 C   0  0  0  0  0  0  0  0  0  0  0  0
    9.4520  -32.6980  -31.4490 O   0  0  0  0  0  0  0  0  0  0  0  0
    5.3460  -32.6660  -33.5210 N   0  0  0  0  0  0  0  0  0  0  0  0
    6.1490  -34.8720  -34.8870 O   0  0  0  0  0  0  0  0  0  0  0  0
    8.9730  -34.1450  -32.9810 C   0  0  0  0  0  0  0  0  0  0  0  0
    6.5590  -33.0480  -33.2550 C   0  0  0  0  0  0  0  0  0  0  0  0
  1  8  2  0
  2  4  1  0
  3  7  1  0
  3  1  1  0
  3  9  1  0
  4  5  2  0
  6  9  2  0
  8  4  1  0
  9  2  1  0
M  END
$$$$

     RDKit          3D

 37 44  0  0  0  0  0  0  0  0999 V2000
    3.1740  -34.4620  -38.3550 C   0  0  0  0  0  0  0  0  0  0  0  0
   11.7160  -33.3370  -33.8700 C   0  0  0  0  0  0  0  0  0  0  0  0
    5.1250  -33.5260  -34.0160 C   0  0  0  0  0  0  0  0  0  0  0  0
   10.0880  -37.0190  -33.9900 O   0  0  0  0  0  0  0  0  0  0  0  0
    7.2290  -35.1710  -35.0260 O   0  0  0  0  0  0  0  0  0  0  0  0
    4.1030  -34.2510  -37.2770 N   0  0  0  0  0  0  0  0  0  0  0  0
   10.7920  -36.0060  -34.8240 C   0  0  0  0  0  0  0  0  0  0  0  0
    5.3630  -34.3170  -37.8160 C   0  0  0  0  0  0  0  0  0  0  0  0
   13.8410  -33.0260  -27.5420 N   0  0  0  0  0  0  0  0  0  0  0  0
    5.3800  -34.0640  -39.2060 O   0  0  0  0  0  0  0  0  0  0  0  0
   13.0410  -33.1130  -28.2870 C   0  0  0  0  0  0  0  0  0  0  0  0
   10.7040  -31.2680  -28.3840 Cl  0  0  0  0  0  0  0  0  0  0  0  0
    3.6540  -34.1080  -35.9210 C   0  0  0  0  0  0  0  0  0  0  0  0
    9.0140  -32.5620  -31.3320 C   0  0  0  0  0  0  0  0  0  0  0  0
    6.0210  -35.2450  -35.5830 C   0  0  0  0  0  0  0  0  0  0  0  0
    7.0640  -32.8030  -32.3180 C   0  0  0  0  0  0  0  0  0  0  0  0
    8.3550  -34.2070  -33.3380 C   0  0  0  0  0  0  0  0  0  0  0  0
   12.8600  -34.0710  -30.1820 O   0  0  0  0  0  0  0  0  0  0  0  0
    6.3590  -33.4910  -33.4930 C   0  0  0  0  0  0  0  0  0  0  0  0
    4.4010  -32.5480  -33.3300 C   0  0  0  0  0  0  0  0  0  0  0  0
   12.2670  -34.3920  -31.1340 C   0  0  0  0  0  0  0  0  0  0  0  0
   10.3010  -32.9130  -30.6740 C   0  0  0  0  0  0  0  0  0  0  0  0
    8.1420  -31.7330  -30.7850 N   0  0  0  0  0  0  0  0  0  0  0  0
    4.9190  -34.2580  -35.1610 C   0  0  0  0  0  0  0  0  0  0  0  0
    9.5990  -36.2590  -32.8790 C   0  0  0  0  0  0  0  0  0  0  0  0
    6.3430  -34.9140  -36.9190 C   0  0  0  0  0  0  0  0  0  0  0  0
    9.8960  -34.9610  -34.7610 O   0  0  0  0  0  0  0  0  0  0  0  0
    8.3730  -33.1710  -32.3410 C   0  0  0  0  0  0  0  0  0  0  0  0
   10.8650  -33.9470  -32.9640 C   0  0  0  0  0  0  0  0  0  0  0  0
   11.0980  -32.5790  -29.6950 C   0  0  0  0  0  0  0  0  0  0  0  0
    7.2190  -34.3690  -33.9570 C   0  0  0  0  0  0  0  0  0  0  0  0
   12.2510  -33.2430  -29.3390 C   0  0  0  0  0  0  0  0  0  0  0  0
   11.1660  -33.8970  -31.6650 C   0  0  0  0  0  0  0  0  0  0  0  0
    3.9900  -33.9440  -39.5590 C   0  0  0  0  0  0  0  0  0  0  0  0
    4.5710  -31.9730  -32.1650 C   0  0  0  0  0  0  0  0  0  0  0  0
    7.1470  -31.7430  -31.2700 N   0  0  0  0  0  0  0  0  0  0  0  0
    9.7400  -34.8580  -33.3380 C   0  0  0  0  0  0  0  0  0  0  0  0
  1  6  1  0
  3 19  1  0
  3 20  1  0
  4 25  1  0
  5 31  1  0
  6 13  1  0
  7 27  1  0
  7  4  1  0
  8  6  1  0
  8 26  2  0
 10  8  1  0
 11  9  3  0
 13 24  1  0
 14 23  1  0
 14 22  1  0
 15 26  1  0
 15 24  1  0
 15  5  1  0
 16 36  1  0
 17 37  1  0
 17 28  1  0
 18 32  1  0
 19 16  2  0
 20 35  2  0
 21 18  1  0
 22 30  1  0
 24  3  2  0
 27 37  1  0
 28 16  1  0
 28 14  2  0
 29  2  1  0
 29 33  1  0
 30 32  2  0
 30 12  1  0
 31 19  1  0
 31 17  2  0
 32 11  1  0
 33 21  1  0
 33 22  2  0
 34 10  1  0
 34  1  1  0
 36 23  2  0
 37 29  1  0
 37 25  1  0
M  END
$$$$

     RDKit          3D

 30 34  0  0  0  0  0  0  0  0999 V2000
    7.0200  -34.5010  -34.0560 C   0  0  0  0  0  0  0  0  0  0  0  0
   11.0790  -33.3790  -30.8860 N   0  0  0  0  0  0  0  0  0  0  0  0
    2.3600  -34.5390  -38.2900 C   0  0  0  0  0  0  0  0  0  0  0  0
   13.4170  -33.6810  -31.1430 O   0  0  0  0  0  0  0  0  0  0  0  0
    8.8050  -32.6640  -31.8380 C   0  0  0  0  0  0  0  0  0  0  0  0
   13.1200  -33.0160  -28.4780 C   0  0  0  0  0  0  0  0  0  0  0  0
    6.2300  -35.7800  -35.7210 C   0  0  0  0  0  0  0  0  0  0  0  0
    0.3630  -35.5460  -37.7190 N   0  0  0  0  0  0  0  0  0  0  0  0
   10.1000  -33.3610  -31.7290 C   0  0  0  0  0  0  0  0  0  0  0  0
    8.1670  -33.9900  -33.3240 C   0  0  0  0  0  0  0  0  0  0  0  0
    4.2970  -35.3240  -36.4730 C   0  0  0  0  0  0  0  0  0  0  0  0
   11.8680  -34.4470  -32.5610 N   0  0  0  0  0  0  0  0  0  0  0  0
    1.6730  -34.6140  -36.1340 C   0  0  0  0  0  0  0  0  0  0  0  0
    9.4670  -34.7980  -33.2750 C   0  0  0  0  0  0  0  0  0  0  0  0
    1.6000  -35.3580  -37.2730 C   0  0  0  0  0  0  0  0  0  0  0  0
   10.7600  -33.1030  -29.4510 C   0  0  0  0  0  0  0  0  0  0  0  0
    9.7110  -32.6530  -29.2230 O   0  0  0  0  0  0  0  0  0  0  0  0
    8.0480  -32.9910  -32.6630 C   0  0  0  0  0  0  0  0  0  0  0  0
    3.9920  -34.6950  -38.1460 C   0  0  0  0  0  0  0  0  0  0  0  0
   11.7150  -33.2220  -28.4480 C   0  0  0  0  0  0  0  0  0  0  0  0
    5.1460  -34.9340  -35.6800 C   0  0  0  0  0  0  0  0  0  0  0  0
    5.8590  -33.7570  -33.7700 C   0  0  0  0  0  0  0  0  0  0  0  0
   11.1820  -33.1680  -27.4460 F   0  0  0  0  0  0  0  0  0  0  0  0
    1.7890  -34.8670  -39.6160 O   0  0  0  0  0  0  0  0  0  0  0  0
    7.2210  -35.4850  -35.0120 C   0  0  0  0  0  0  0  0  0  0  0  0
    5.0200  -34.2060  -34.5550 C   0  0  0  0  0  0  0  0  0  0  0  0
   10.4550  -34.2190  -32.6590 C   0  0  0  0  0  0  0  0  0  0  0  0
    3.1970  -33.3440  -38.2440 C   0  0  0  0  0  0  0  0  0  0  0  0
   12.2400  -33.8230  -31.4590 C   0  0  0  0  0  0  0  0  0  0  0  0
    2.9870  -34.9410  -35.9480 N   0  0  0  0  0  0  0  0  0  0  0  0
  1 22  1  0
  1 10  1  0
  2 16  1  0
  3 24  1  0
  3 28  1  0
  3 19  1  0
  3 15  1  0
  5  9  4  0
  7 25  2  0
  9  2  4  0
 10 14  4  0
 10 18  4  0
 11 30  1  0
 11 21  1  0
 12 29  4  0
 13 30  1  0
 14 27  4  0
 15  8  1  0
 15 13  1  0
 16 17  2  0
 16 20  1  0
 18  5  4  0
 19 28  1  0
 19 11  1  0
 20  6  1  0
 20 23  1  0
 21  7  1  0
 21 26  1  0
 25  1  1  0
 26 22  1  0
 27 12  4  0
 27  9  4  0
 29  4  2  0
 29  2  4  0
M  END
$$$$

     RDKit          3D

 11 12  0  0  0  0  0  0  0  0999 V2000
   10.0240  -32.2580  -30.0640 C   0  0  0  0  0  0  0  0  0  0  0  0
    9.9270  -34.9350  -33.4580 C   0  0  0  0  0  0  0  0  0  0  0  0
    8.6070  -34.6490  -33.4710 C   0  0  0  0  0  0  0  0  0  0  0  0
    6.8840  -33.6130  -33.4150 C   0  0  0  0  0  0  0  0  0  0  0  0
   10.8410  -34.5670  -32.7320 C   0  0  0  0  0  0  0  0  0  0  0  0
   10.8500  -33.6410  -31.6820 C   0  0  0  0  0  0  0  0  0  0  0  0
    6.7230  -34.5600  -34.3050 C   0  0  0  0  0  0  0  0  0  0  0  0
    7.8010  -35.3510  -34.3670 N   0  0  0  0  0  0  0  0  0  0  0  0
    8.1170  -33.7420  -32.8650 C   0  0  0  0  0  0  0  0  0  0  0  0
    9.7490  -33.0880  -31.2860 C   0  0  0  0  0  0  0  0  0  0  0  0
    8.6470  -33.0240  -32.0430 C   0  0  0  0  0  0  0  0  0  0  0  0
  2  5  4  0
  3  2  4  0
  3  9  1  0
  4  9  4  0
  5  6  4  0
  6 10  4  0
  7  4  4  0
  8  7  4  0
  8  3  4  0
  9 11  4  0
 10  1  1  0
 11 10  4  0
M  END
$$$$

     RDKit          3D

  5  4  0  0  0  0  0  0  0  0999 V2000
    8.5690  -35.1340  -33.1010 O   0  0  0  0  0  0  0  0  0  0  0  0
    7.6210  -34.6900  -34.0810 C   0  0  0  0  0  0  0  0  0  0  0  0
    6.2200  -34.9970  -34.5730 C   0  0  0  0  0  0  0  0  0  0  0  0
    6.0440  -32.8000  -33.1880 O   0  0  0  0  0  0  0  0  0  0  0  0
    7.1150  -33.7350  -33.6470 C   0  0  0  0  0  0  0  0  0  0  0  0
  2  3  1  0
  2  5  1  0
  2  1  1  0
  5  4  1  0
M  END
$$$$

     RDKit          3D

 17 20  0  0  0  0  0  0  0  0999 V2000
   10.0920  -32.6610  -30.8160 C   0  0  0  0  0  0  0  0  0  0  0  0
    4.8120  -34.1630  -34.5280 C   0  0  0  0  0  0  0  0  0  0  0  0
   10.8040  -33.8890  -31.2820 C   0  0  0  0  0  0  0  0  0  0  0  0
    9.5550  -34.3260  -33.0980 C   0  0  0  0  0  0  0  0  0  0  0  0
    8.7090  -35.6500  -34.8390 C   0  0  0  0  0  0  0  0  0  0  0  0
    3.9820  -32.3220  -33.1430 C   0  0  0  0  0  0  0  0  0  0  0  0
    8.7100  -32.6110  -31.4670 C   0  0  0  0  0  0  0  0  0  0  0  0
    6.3460  -33.1790  -33.2730 N   0  0  0  0  0  0  0  0  0  0  0  0
   10.8350  -34.2330  -32.6820 C   0  0  0  0  0  0  0  0  0  0  0  0
    5.2540  -35.0590  -35.3340 C   0  0  0  0  0  0  0  0  0  0  0  0
    8.3740  -33.3570  -32.4560 C   0  0  0  0  0  0  0  0  0  0  0  0
    5.1270  -33.3220  -33.7210 C   0  0  0  0  0  0  0  0  0  0  0  0
    7.3760  -33.8040  -33.6200 C   0  0  0  0  0  0  0  0  0  0  0  0
    8.7140  -34.8800  -34.1460 C   0  0  0  0  0  0  0  0  0  0  0  0
    7.1910  -34.7550  -34.2770 C   0  0  0  0  0  0  0  0  0  0  0  0
    8.7160  -35.6640  -33.9940 C   0  0  0  0  0  0  0  0  0  0  0  0
    6.6090  -35.3170  -35.2420 C   0  0  0  0  0  0  0  0  0  0  0  0
  2 12  2  0
  3  1  1  0
  4  9  1  0
  4 11  1  0
  5 14  1  0
  5 16  1  0
  7  1  1  0
  9  3  1  0
 10 17  1  0
 10  2  1  0
 11  7  2  0
 12  8  1  0
 12  6  1  0
 13  8  2  0
 13 11  1  0
 14 16  1  0
 14  4  1  0
 15 17  1  0
 15 14  1  0
 15 13  1  0
M  END
$$$$

     RDKit          3D

 23 27  0  0  0  0  0  0  0  0999 V2000
    4.8110  -34.1190  -35.2810 C   0  0  0  0  0  0  0  0  0  0  0  0
   12.6750  -34.0760  -33.3560 C   0  0  0  0  0  0  0  0  0  0  0  0
   12.2770  -34.2190  -30.4050 O   0  0  0  0  0  0  0  0  0  0  0  0
    8.0120  -34.2870  -33.4310 C   0  0  0  0  0  0  0  0  0  0  0  0
   11.6860  -33.1890  -31.2430 C   0  0  0  0  0  0  0  0  0  0  0  0
   11.3420  -34.8130  -33.4790 C   0  0  0  0  0  0  0  0  0  0  0  0
    3.4560  -33.7240  -35.6280 C   0  0  0  0  0  0  0  0  0  0  0  0
    6.9840  -34.5880  -34.3400 C   0  0  0  0  0  0  0  0  0  0  0  0
   10.1860  -33.3630  -31.7050 C   0  0  0  0  0  0  0  0  0  0  0  0
   10.4300  -36.8930  -33.9930 C   0  0  0  0  0  0  0  0  0  0  0  0
    6.9700  -35.6160  -35.2000 N   0  0  0  0  0  0  0  0  0  0  0  0
    6.0440  -35.9250  -36.0300 C   0  0  0  0  0  0  0  0  0  0  0  0
    4.2010  -35.0800  -37.3580 C   0  0  0  0  0  0  0  0  0  0  0  0
   12.6050  -32.9500  -32.4060 C   0  0  0  0  0  0  0  0  0  0  0  0
    5.0510  -35.0960  -36.2790 C   0  0  0  0  0  0  0  0  0  0  0  0
    5.8320  -33.7780  -34.3130 C   0  0  0  0  0  0  0  0  0  0  0  0
   11.2610  -35.8990  -34.2370 C   0  0  0  0  0  0  0  0  0  0  0  0
    3.0730  -34.4280  -36.7600 N   0  0  0  0  0  0  0  0  0  0  0  0
   10.1330  -34.4350  -32.7650 C   0  0  0  0  0  0  0  0  0  0  0  0
    7.6200  -33.1250  -32.7360 C   0  0  0  0  0  0  0  0  0  0  0  0
    9.0670  -35.0500  -33.2380 N   0  0  0  0  0  0  0  0  0  0  0  0
    9.0440  -36.4230  -33.6240 C   0  0  0  0  0  0  0  0  0  0  0  0
    6.0820  -32.5810  -33.1450 S   0  0  0  0  0  0  0  0  0  0  0  0
  1 16  4  0
  2 14  1  0
  4 21  1  0
  4 20  4  0
  5  3  1  0
  6 17  1  0
  6  2  1  0
  6 19  1  0
  7  1  1  0
  8 16  4  0
  8  4  4  0
  9  5  1  0
 10 22  1  0
 11  8  4  0
 12 11  4  0
 13 18  1  0
 13 15  1  0
 14  5  1  0
 15 12  4  0
 15  1  4  0
 16 23  4  0
 17 10  1  0
 18  7  1  0
 19  9  1  0
 21 19  1  0
 22 21  1  0
 23 20  4  0
M  END
$$$$

     RDKit          3D

 25 28  0  0  0  0  0  0  0  0999 V2000
    9.2440  -33.7180  -32.4750 O   0  0  0  0  0  0  0  0  0  0  0  0
   10.4340  -34.2500  -32.4330 C   0  0  0  0  0  0  0  0  0  0  0  0
    3.2000  -31.1010  -30.4220 N   0  0  0  0  0  0  0  0  0  0  0  0
    5.4030  -35.9400  -35.9150 O   0  0  0  0  0  0  0  0  0  0  0  0
    8.2990  -34.2120  -33.3230 C   0  0  0  0  0  0  0  0  0  0  0  0
    6.2360  -35.2210  -35.3910 C   0  0  0  0  0  0  0  0  0  0  0  0
    7.6200  -35.8720  -35.3310 C   0  0  0  0  0  0  0  0  0  0  0  0
   11.1650  -32.0920  -28.9530 C   0  0  0  0  0  0  0  0  0  0  0  0
   11.3030  -31.1740  -27.9660 O   0  0  0  0  0  0  0  0  0  0  0  0
    7.2030  -32.4050  -31.9940 C   0  0  0  0  0  0  0  0  0  0  0  0
    5.8790  -33.4530  -33.7600 C   0  0  0  0  0  0  0  0  0  0  0  0
    6.0500  -31.7900  -31.5390 C   0  0  0  0  0  0  0  0  0  0  0  0
    4.8080  -32.1370  -32.0890 C   0  0  0  0  0  0  0  0  0  0  0  0
   12.2360  -32.2380  -29.8810 C   0  0  0  0  0  0  0  0  0  0  0  0
    7.0810  -33.3110  -33.0560 C   0  0  0  0  0  0  0  0  0  0  0  0
   10.7320  -35.2680  -33.4030 C   0  0  0  0  0  0  0  0  0  0  0  0
    3.8700  -31.5440  -31.2580 C   0  0  0  0  0  0  0  0  0  0  0  0
   10.9580  -33.6720  -31.1450 C   0  0  0  0  0  0  0  0  0  0  0  0
    8.5100  -35.1950  -34.2430 C   0  0  0  0  0  0  0  0  0  0  0  0
   10.0250  -33.7980  -30.1030 C   0  0  0  0  0  0  0  0  0  0  0  0
    4.7560  -32.8950  -33.2510 C   0  0  0  0  0  0  0  0  0  0  0  0
   12.1170  -33.0820  -30.9400 C   0  0  0  0  0  0  0  0  0  0  0  0
    9.8690  -35.7630  -34.2430 C   0  0  0  0  0  0  0  0  0  0  0  0
   10.1310  -32.9100  -29.0200 C   0  0  0  0  0  0  0  0  0  0  0  0
    5.9360  -33.9770  -35.0510 O   0  0  0  0  0  0  0  0  0  0  0  0
  1  2  1  0
  2 18  1  0
  4  6  2  0
  5 15  1  0
  5  1  1  0
  6  7  1  0
  6 25  1  0
  7 19  1  0
  8  9  1  0
 10 12  4  0
 11 21  4  0
 11 15  4  0
 13 12  4  0
 13 17  1  0
 14  8  4  0
 15 10  4  0
 16  2  1  0
 17  3  3  0
 18 22  4  0
 18 20  4  0
 19  5  2  0
 20 24  4  0
 21 13  4  0
 22 14  4  0
 23 19  1  0
 23 16  2  0
 24  8  4  0
 25 11  1  0
M  END
$$$$

     RDKit          3D

 17 21  0  0  0  0  0  0  0  0999 V2000
    4.9750  -33.2680  -33.6860 C   0  0  0  0  0  0  0  0  0  0  0  0
    7.2400  -35.6250  -35.1080 N   0  0  0  0  0  0  0  0  0  0  0  0
    9.2800  -35.5820  -33.5840 C   0  0  0  0  0  0  0  0  0  0  0  0
    8.0130  -35.0400  -34.1520 C   0  0  0  0  0  0  0  0  0  0  0  0
   11.1190  -34.1820  -30.6320 C   0  0  0  0  0  0  0  0  0  0  0  0
    8.1030  -32.9300  -32.6320 C   0  0  0  0  0  0  0  0  0  0  0  0
   10.6910  -32.7770  -30.0520 C   0  0  0  0  0  0  0  0  0  0  0  0
    3.8570  -33.5540  -34.4060 C   0  0  0  0  0  0  0  0  0  0  0  0
    4.8350  -35.2940  -35.7060 C   0  0  0  0  0  0  0  0  0  0  0  0
    7.4370  -33.9420  -33.5310 C   0  0  0  0  0  0  0  0  0  0  0  0
    3.8410  -34.5070  -35.4290 C   0  0  0  0  0  0  0  0  0  0  0  0
    6.0400  -34.9680  -35.0070 C   0  0  0  0  0  0  0  0  0  0  0  0
    9.4280  -35.0610  -32.2210 C   0  0  0  0  0  0  0  0  0  0  0  0
    9.2770  -32.5910  -30.6610 C   0  0  0  0  0  0  0  0  0  0  0  0
   10.6010  -34.0830  -32.0700 C   0  0  0  0  0  0  0  0  0  0  0  0
    6.0930  -33.9750  -33.9960 C   0  0  0  0  0  0  0  0  0  0  0  0
    9.2410  -33.6180  -31.9960 N   0  0  0  0  0  0  0  0  0  0  0  0
  2 12  2  0
  2  4  1  0
  4  3  1  0
  4 10  1  0
  5  7  1  0
  8  1  2  0
  9 11  2  0
  9 12  1  0
 10  6  1  0
 11  8  1  0
 12 16  1  0
 13  3  1  0
 13 15  1  0
 13 17  1  0
 14  7  1  0
 15 17  1  0
 15  5  1  0
 16  1  1  0
 16 10  2  0
 17  6  1  0
 17 14  1  0
M  END
$$$$

     RDKit          3D

 35 39  0  0  0  0  0  0  0  0999 V2000
    7.0690  -31.7180  -31.5740 C   0  0  0  0  0  0  0  0  0  0  0  0
   12.0470  -32.9390  -32.4470 O   0  0  0  0  0  0  0  0  0  0  0  0
    9.0640  -33.5990  -32.0670 C   0  0  0  0  0  0  0  0  0  0  0  0
   10.8330  -36.5550  -33.7220 C   0  0  0  0  0  0  0  0  0  0  0  0
    8.9350  -31.8550  -30.4330 O   0  0  0  0  0  0  0  0  0  0  0  0
    9.2210  -35.4660  -35.1390 C   0  0  0  0  0  0  0  0  0  0  0  0
    9.9650  -32.9710  -32.3050 C   0  0  0  0  0  0  0  0  0  0  0  0
    3.4820  -35.1940  -35.5560 C   0  0  0  0  0  0  0  0  0  0  0  0
   12.7060  -33.0790  -29.1770 C   0  0  0  0  0  0  0  0  0  0  0  0
    3.6560  -35.0690  -36.8890 C   0  0  0  0  0  0  0  0  0  0  0  0
    5.6160  -31.5450  -31.8110 C   0  0  0  0  0  0  0  0  0  0  0  0
    2.8380  -36.1410  -37.6870 C   0  0  0  0  0  0  0  0  0  0  0  0
    4.6930  -33.9360  -37.0640 C   0  0  0  0  0  0  0  0  0  0  0  0
   10.4370  -35.4130  -32.7250 C   0  0  0  0  0  0  0  0  0  0  0  0
    9.8290  -36.8360  -34.7310 C   0  0  0  0  0  0  0  0  0  0  0  0
   11.3600  -32.8710  -31.2010 C   0  0  0  0  0  0  0  0  0  0  0  0
    1.8860  -35.2920  -38.6290 C   0  0  0  0  0  0  0  0  0  0  0  0
   10.1680  -32.3210  -30.0710 C   0  0  0  0  0  0  0  0  0  0  0  0
   12.3310  -33.0250  -30.5670 C   0  0  0  0  0  0  0  0  0  0  0  0
    8.5060  -35.0950  -33.9750 C   0  0  0  0  0  0  0  0  0  0  0  0
    4.1630  -34.6150  -34.3680 C   0  0  0  0  0  0  0  0  0  0  0  0
    5.1210  -34.2570  -38.4390 C   0  0  0  0  0  0  0  0  0  0  0  0
    2.5250  -33.9810  -38.4180 C   0  0  0  0  0  0  0  0  0  0  0  0
    7.3840  -34.2000  -34.0340 O   0  0  0  0  0  0  0  0  0  0  0  0
    3.6750  -34.1610  -39.3610 C   0  0  0  0  0  0  0  0  0  0  0  0
    5.9250  -32.9900  -33.2780 C   0  0  0  0  0  0  0  0  0  0  0  0
    7.0900  -33.1620  -33.1320 C   0  0  0  0  0  0  0  0  0  0  0  0
   11.8430  -32.3120  -28.3140 C   0  0  0  0  0  0  0  0  0  0  0  0
    9.7860  -31.1440  -28.0600 F   0  0  0  0  0  0  0  0  0  0  0  0
    5.1330  -33.8300  -34.6690 C   0  0  0  0  0  0  0  0  0  0  0  0
   10.6070  -31.9660  -28.7840 C   0  0  0  0  0  0  0  0  0  0  0  0
    5.6480  -33.6790  -36.0010 C   0  0  0  0  0  0  0  0  0  0  0  0
    9.6460  -34.2050  -33.2010 C   0  0  0  0  0  0  0  0  0  0  0  0
    7.8690  -32.6090  -31.9660 C   0  0  0  0  0  0  0  0  0  0  0  0
    5.0150  -32.2780  -32.6430 C   0  0  0  0  0  0  0  0  0  0  0  0
  3  7  1  0
  3 34  1  0
  4 14  1  0
  6 15  1  0
  6 20  1  0
  7 16  1  0
  8 21  1  0
  9 28  1  0
 10  8  2  0
 11  1  4  0
 12 10  1  0
 13 22  1  0
 13 10  1  0
 13 32  1  0
 15  4  1  0
 16  2  1  0
 16 19  1  0
 16 18  1  0
 17 23  1  0
 17 12  1  0
 18  5  1  0
 18 31  1  0
 19  9  1  0
 24 20  1  0
 24 27  1  0
 25 22  1  0
 25 23  1  0
 26 27  4  0
 26 35  4  0
 27 34  4  0
 30 21  1  0
 30 26  1  0
 31 28  2  0
 31 29  1  0
 32 30  1  0
 33 14  1  0
 33  3  1  0
 34  1  4  0
 35 11  4  0
M  END
$$$$

     RDKit          3D

 23 26  0  0  0  0  0  0  0  0999 V2000
    7.5130  -34.2660  -33.8370 C   0  0  0  0  0  0  0  0  0  0  0  0
    3.2810  -33.1590  -34.9410 C   0  0  0  0  0  0  0  0  0  0  0  0
    9.2660  -35.7460  -34.4110 C   0  0  0  0  0  0  0  0  0  0  0  0
    9.5600  -32.7380  -30.9230 C   0  0  0  0  0  0  0  0  0  0  0  0
    9.6730  -34.1880  -32.8580 C   0  0  0  0  0  0  0  0  0  0  0  0
   12.5490  -34.1730  -30.4800 F   0  0  0  0  0  0  0  0  0  0  0  0
    4.8540  -34.7640  -35.7560 C   0  0  0  0  0  0  0  0  0  0  0  0
    1.6490  -34.1380  -36.1170 N   0  0  0  0  0  0  0  0  0  0  0  0
    2.6920  -34.7640  -36.4040 C   0  0  0  0  0  0  0  0  0  0  0  0
    6.2680  -33.9990  -34.0550 N   0  0  0  0  0  0  0  0  0  0  0  0
    1.9550  -32.8980  -35.1140 N   0  0  0  0  0  0  0  0  0  0  0  0
    6.0860  -34.8210  -34.9800 C   0  0  0  0  0  0  0  0  0  0  0  0
   11.4430  -33.8400  -31.5370 C   0  0  0  0  0  0  0  0  0  0  0  0
    8.5260  -32.1340  -30.8970 F   0  0  0  0  0  0  0  0  0  0  0  0
    7.9650  -35.3870  -34.4870 C   0  0  0  0  0  0  0  0  0  0  0  0
    6.9480  -35.8060  -35.2280 N   0  0  0  0  0  0  0  0  0  0  0  0
    8.3780  -33.8100  -32.9630 C   0  0  0  0  0  0  0  0  0  0  0  0
   11.9110  -33.6660  -30.4030 C   0  0  0  0  0  0  0  0  0  0  0  0
   10.1830  -35.0240  -33.7570 C   0  0  0  0  0  0  0  0  0  0  0  0
    3.7880  -34.2220  -35.6830 C   0  0  0  0  0  0  0  0  0  0  0  0
   10.2280  -33.4950  -31.8250 C   0  0  0  0  0  0  0  0  0  0  0  0
   10.2310  -32.3550  -29.7940 C   0  0  0  0  0  0  0  0  0  0  0  0
   11.4100  -32.9430  -29.5020 C   0  0  0  0  0  0  0  0  0  0  0  0
  1 17  2  0
  3 19  1  0
  4 14  1  0
  4 22  4  0
  5 21  1  0
  6 18  1  0
  7 20  1  0
  7 12  1  0
  8 11  4  0
  9  8  4  0
  9 20  4  0
 10  1  4  0
 11  2  4  0
 12 10  4  0
 13 18  4  0
 15  3  2  0
 15  1  4  0
 16 12  4  0
 16 15  4  0
 17  5  1  0
 18 23  4  0
 19  5  1  0
 20  2  4  0
 21 13  4  0
 21  4  4  0
 22 23  4  0
M  END
$$$$

     RDKit          3D

  8  8  0  0  0  0  0  0  0  0999 V2000
    5.8630  -34.4160  -34.4680 C   0  0  0  0  0  0  0  0  0  0  0  0
    8.9490  -33.6640  -32.7760 N   0  0  0  0  0  0  0  0  0  0  0  0
    7.0290  -33.9640  -33.7600 C   0  0  0  0  0  0  0  0  0  0  0  0
    8.2120  -32.6700  -32.2230 C   0  0  0  0  0  0  0  0  0  0  0  0
    6.9010  -32.7040  -32.8700 C   0  0  0  0  0  0  0  0  0  0  0  0
    8.2330  -34.3950  -33.5560 C   0  0  0  0  0  0  0  0  0  0  0  0
   10.3560  -34.1100  -32.7620 C   0  0  0  0  0  0  0  0  0  0  0  0
    8.5720  -35.7050  -34.2440 C   0  0  0  0  0  0  0  0  0  0  0  0
  1  3  1  0
  2  7  1  0
  2  4  4  0
  3  6  4  0
  3  5  4  0
  5  4  4  0
  6  2  4  0
  8  6  1  0
M  END
$$$$

     RDKit          3D

 11 11  0  0  0  0  0  0  0  0999 V2000
    6.0150  -32.1320  -32.5930 C   0  0  0  0  0  0  0  0  0  0  0  0
    8.9350  -36.3630  -34.5340 C   0  0  0  0  0  0  0  0  0  0  0  0
    6.7620  -33.3220  -33.2170 C   0  0  0  0  0  0  0  0  0  0  0  0
    7.9790  -33.6540  -32.7690 C   0  0  0  0  0  0  0  0  0  0  0  0
    9.6650  -35.2840  -33.0330 N   0  0  0  0  0  0  0  0  0  0  0  0
    6.2010  -34.1270  -34.2220 C   0  0  0  0  0  0  0  0  0  0  0  0
    7.8260  -35.6350  -34.3560 C   0  0  0  0  0  0  0  0  0  0  0  0
    8.8490  -32.8610  -31.7920 C   0  0  0  0  0  0  0  0  0  0  0  0
    8.5760  -34.7500  -33.3830 C   0  0  0  0  0  0  0  0  0  0  0  0
    4.8950  -33.7200  -34.9370 C   0  0  0  0  0  0  0  0  0  0  0  0
    6.6940  -35.1670  -34.7480 N   0  0  0  0  0  0  0  0  0  0  0  0
  2  7  1  0
  3  4  4  0
  3  1  1  0
  4  8  1  0
  6  3  4  0
  7  9  4  0
  9  5  1  0
  9  4  4  0
 10  6  1  0
 11  7  4  0
 11  6  4  0
M  END
$$$$

     RDKit          3D

 13 14  0  0  0  0  0  0  0  0999 V2000
    5.9660  -31.4710  -31.7210 C   0  0  0  0  0  0  0  0  0  0  0  0
   10.0020  -34.4580  -33.0620 C   0  0  0  0  0  0  0  0  0  0  0  0
    7.6260  -34.2750  -33.6740 C   0  0  0  0  0  0  0  0  0  0  0  0
    5.2870  -34.0220  -34.3920 C   0  0  0  0  0  0  0  0  0  0  0  0
    7.4940  -33.1780  -32.7750 C   0  0  0  0  0  0  0  0  0  0  0  0
    8.6370  -32.7230  -32.0180 C   0  0  0  0  0  0  0  0  0  0  0  0
    8.9980  -36.0450  -34.5720 N   0  0  0  0  0  0  0  0  0  0  0  0
    6.2230  -32.5400  -32.7030 C   0  0  0  0  0  0  0  0  0  0  0  0
    5.1820  -32.9470  -33.5420 C   0  0  0  0  0  0  0  0  0  0  0  0
    6.5710  -34.6910  -34.4730 C   0  0  0  0  0  0  0  0  0  0  0  0
    9.8990  -33.3660  -32.1580 C   0  0  0  0  0  0  0  0  0  0  0  0
    8.8940  -34.9620  -33.7620 C   0  0  0  0  0  0  0  0  0  0  0  0
    6.6410  -35.7180  -35.3100 N   0  0  0  0  0  0  0  0  0  0  0  0
  2 11  4  0
  3  5  4  0
  4  9  4  0
  5  8  4  0
  5  6  4  0
  7 12  1  0
  8  1  1  0
  9  8  4  0
 10  4  4  0
 10  3  4  0
 11  6  4  0
 12  3  4  0
 12  2  4  0
 13 10  1  0
M  END
$$$$

     RDKit          3D

 11 12  0  0  0  0  0  0  0  0999 V2000
    9.9290  -35.8240  -33.3320 C   0  0  0  0  0  0  0  0  0  0  0  0
    7.8290  -35.2110  -34.0410 C   0  0  0  0  0  0  0  0  0  0  0  0
    6.6900  -33.4790  -33.5470 C   0  0  0  0  0  0  0  0  0  0  0  0
    6.6580  -35.2400  -34.7190 C   0  0  0  0  0  0  0  0  0  0  0  0
    9.9980  -34.7170  -32.5460 C   0  0  0  0  0  0  0  0  0  0  0  0
    8.8630  -36.0980  -34.0890 N   0  0  0  0  0  0  0  0  0  0  0  0
    7.8310  -34.0750  -33.3050 C   0  0  0  0  0  0  0  0  0  0  0  0
    8.8820  -33.8360  -32.5190 C   0  0  0  0  0  0  0  0  0  0  0  0
    8.9770  -32.6340  -31.6750 C   0  0  0  0  0  0  0  0  0  0  0  0
    6.2840  -32.4360  -32.9920 N   0  0  0  0  0  0  0  0  0  0  0  0
    5.8700  -34.1990  -34.3910 C   0  0  0  0  0  0  0  0  0  0  0  0
  1  5  1  0
  3  7  1  0
  3 10  1  0
  4 11  1  0
  4  2  2  0
  5  8  2  0
  6  2  1  0
  6  1  2  0
  7  2  1  0
  7  8  1  0
  8  9  1  0
 11  3  2  0
M  END
$$$$

     RDKit          3D

  3  2  0  0  0  0  0  0  0  0999 V2000
    8.1050  -35.0810  -33.7260 C   0  0  0  0  0  0  0  0  0  0  0  0
    8.7130  -36.4110  -33.9160 C   0  0  0  0  0  0  0  0  0  0  0  0
    9.4130  -34.4440  -33.8330 C   0  0  0  0  0  0  0  0  0  0  0  0
  2  1  1  0
  3  1  1  0
M  END
$$$$

     RDKit          3D

 35 40  0  0  0  0  0  0  0  0999 V2000
    9.0730  -35.9550  -35.4580 C   0  0  0  0  0  0  0  0  0  0  0  0
   12.1620  -33.1940  -30.6770 C   0  0  0  0  0  0  0  0  0  0  0  0
    6.2980  -35.1940  -36.7100 C   0  0  0  0  0  0  0  0  0  0  0  0
    2.6760  -31.4300  -31.4010 C   0  0  0  0  0  0  0  0  0  0  0  0
    3.8660  -30.9900  -31.0820 C   0  0  0  0  0  0  0  0  0  0  0  0
   10.3900  -33.8390  -32.7760 C   0  0  0  0  0  0  0  0  0  0  0  0
    5.5780  -31.9870  -31.8160 C   0  0  0  0  0  0  0  0  0  0  0  0
   12.2240  -32.2770  -27.5070 N   0  0  0  0  0  0  0  0  0  0  0  0
   10.9520  -33.3060  -29.0040 N   0  0  0  0  0  0  0  0  0  0  0  0
    4.3080  -35.1860  -38.2250 O   0  0  0  0  0  0  0  0  0  0  0  0
    6.2810  -33.6010  -33.4050 C   0  0  0  0  0  0  0  0  0  0  0  0
    7.7610  -32.7470  -31.8620 C   0  0  0  0  0  0  0  0  0  0  0  0
   10.6250  -35.8500  -33.7740 C   0  0  0  0  0  0  0  0  0  0  0  0
   10.5840  -34.4420  -31.2840 C   0  0  0  0  0  0  0  0  0  0  0  0
    2.4560  -32.4310  -32.4840 C   0  0  0  0  0  0  0  0  0  0  0  0
    1.3940  -30.6480  -31.1810 C   0  0  0  0  0  0  0  0  0  0  0  0
    7.2800  -33.6020  -32.9420 C   0  0  0  0  0  0  0  0  0  0  0  0
    7.9770  -34.1640  -33.6750 C   0  0  0  0  0  0  0  0  0  0  0  0
   11.8230  -34.4090  -32.8180 O   0  0  0  0  0  0  0  0  0  0  0  0
   11.2340  -33.8350  -30.1530 C   0  0  0  0  0  0  0  0  0  0  0  0
   11.6250  -33.5490  -32.2030 C   0  0  0  0  0  0  0  0  0  0  0  0
    5.5030  -32.5630  -33.0120 C   0  0  0  0  0  0  0  0  0  0  0  0
    8.7560  -34.7770  -34.0310 C   0  0  0  0  0  0  0  0  0  0  0  0
    9.8560  -34.7000  -33.4470 C   0  0  0  0  0  0  0  0  0  0  0  0
    6.8270  -32.1690  -31.2500 C   0  0  0  0  0  0  0  0  0  0  0  0
    4.0960  -34.9000  -35.8570 C   0  0  0  0  0  0  0  0  0  0  0  0
    6.1130  -34.2350  -34.5610 C   0  0  0  0  0  0  0  0  0  0  0  0
   10.3250  -36.2630  -35.0620 C   0  0  0  0  0  0  0  0  0  0  0  0
    6.8280  -34.9560  -35.3790 C   0  0  0  0  0  0  0  0  0  0  0  0
    4.8730  -35.0470  -36.9650 C   0  0  0  0  0  0  0  0  0  0  0  0
    4.7930  -34.5070  -34.7360 C   0  0  0  0  0  0  0  0  0  0  0  0
    8.3570  -35.1670  -34.9930 C   0  0  0  0  0  0  0  0  0  0  0  0
    9.6960  -34.1220  -31.6650 C   0  0  0  0  0  0  0  0  0  0  0  0
    4.9260  -31.3380  -31.3810 O   0  0  0  0  0  0  0  0  0  0  0  0
   11.9220  -32.6380  -28.4820 C   0  0  0  0  0  0  0  0  0  0  0  0
  1 28  1  0
  1 32  2  0
  2 20  1  0
  4 16  1  0
  4  5  2  3
  6 21  1  0
  6 33  1  0
  7 34  1  0
  7 25  2  0
  9 35  1  0
 10 30  1  0
 11 22  1  0
 11 17  1  0
 12 25  1  0
 14 33  1  0
 14 20  1  0
 15  4  1  0
 17 12  1  0
 18 17  2  0
 20  9  1  0
 21 19  1  0
 21 14  1  0
 21  2  1  0
 22  7  1  0
 23 18  2  0
 23 24  1  0
 24 13  1  0
 24  6  1  0
 26 31  1  0
 27 31  1  0
 27 11  1  0
 28 13  1  0
 29  3  1  0
 29 32  1  0
 29 27  1  0
 30  3  2  0
 30 26  1  0
 32 23  1  0
 34  5  1  0
 35  8  2  0
M  END
$$$$

     RDKit          3D

  1  0  0  0  0  0  0  0  0  0999 V2000
   21.0240  -35.9370  -32.9920 Cl  0  0  0  0  0  0  0  0  0  0  0  0
M  END
$$$$

     RDKit          3D

 11 12  0  0  0  0  0  0  0  0999 V2000
    9.6490  -34.2050  -32.3520 C   0  0  0  0  0  0  0  0  0  0  0  0
    6.5200  -35.2220  -34.8930 C   0  0  0  0  0  0  0  0  0  0  0  0
    9.6040  -33.0520  -31.6100 C   0  0  0  0  0  0  0  0  0  0  0  0
    7.6490  -35.9970  -34.8900 C   0  0  0  0  0  0  0  0  0  0  0  0
    6.2290  -31.8910  -32.2890 O   0  0  0  0  0  0  0  0  0  0  0  0
    8.5000  -32.2630  -31.6230 C   0  0  0  0  0  0  0  0  0  0  0  0
    8.6340  -34.5330  -33.2100 C   0  0  0  0  0  0  0  0  0  0  0  0
    7.5030  -33.7020  -33.2160 C   0  0  0  0  0  0  0  0  0  0  0  0
    8.6810  -35.6900  -34.0760 C   0  0  0  0  0  0  0  0  0  0  0  0
    6.4870  -34.0810  -34.0600 C   0  0  0  0  0  0  0  0  0  0  0  0
    7.3580  -32.5550  -32.4740 C   0  0  0  0  0  0  0  0  0  0  0  0
  1  3  4  0
  2  4  4  0
  2 10  4  0
  4  9  4  0
  6  3  4  0
  7  1  4  0
  8  7  4  0
  8 11  4  0
  9  7  4  0
 10  8  4  0
 11  5  1  0
 11  6  4  0
M  END
$$$$

     RDKit          3D

 38 43  0  0  0  0  0  0  0  0999 V2000
    3.4830  -34.7730  -35.6400 C   0  0  0  0  0  0  0  0  0  0  0  0
   10.1010  -37.1360  -34.4160 C   0  0  0  0  0  0  0  0  0  0  0  0
    4.4410  -32.1290  -31.9200 O   0  0  0  0  0  0  0  0  0  0  0  0
    7.0080  -35.6450  -35.8460 C   0  0  0  0  0  0  0  0  0  0  0  0
   10.0250  -33.6520  -30.1410 C   0  0  0  0  0  0  0  0  0  0  0  0
    9.4200  -33.8740  -32.3190 C   0  0  0  0  0  0  0  0  0  0  0  0
    5.7240  -34.3690  -37.1950 C   0  0  0  0  0  0  0  0  0  0  0  0
    2.4440  -32.1140  -33.1550 C   0  0  0  0  0  0  0  0  0  0  0  0
    7.7800  -35.2390  -34.9460 C   0  0  0  0  0  0  0  0  0  0  0  0
   10.8320  -34.8400  -33.5900 C   0  0  0  0  0  0  0  0  0  0  0  0
   12.4860  -32.4330  -28.0330 C   0  0  0  0  0  0  0  0  0  0  0  0
    6.3680  -31.3570  -31.0250 N   0  0  0  0  0  0  0  0  0  0  0  0
    7.5520  -33.5050  -33.1190 C   0  0  0  0  0  0  0  0  0  0  0  0
    3.3600  -33.5550  -34.9470 N   0  0  0  0  0  0  0  0  0  0  0  0
    8.7440  -34.8530  -34.2580 C   0  0  0  0  0  0  0  0  0  0  0  0
    7.3130  -32.8130  -32.3060 C   0  0  0  0  0  0  0  0  0  0  0  0
   11.9800  -33.4980  -27.5400 O   0  0  0  0  0  0  0  0  0  0  0  0
   11.6510  -31.8330  -29.0690 C   0  0  0  0  0  0  0  0  0  0  0  0
   10.7870  -34.0950  -32.6970 C   0  0  0  0  0  0  0  0  0  0  0  0
    7.1740  -32.2800  -31.6800 C   0  0  0  0  0  0  0  0  0  0  0  0
   12.5870  -34.0310  -31.5050 C   0  0  0  0  0  0  0  0  0  0  0  0
    2.1830  -32.6930  -34.5320 C   0  0  0  0  0  0  0  0  0  0  0  0
   10.0920  -31.4520  -29.2200 C   0  0  0  0  0  0  0  0  0  0  0  0
    4.5820  -35.7170  -35.7030 C   0  0  0  0  0  0  0  0  0  0  0  0
    5.2650  -31.3280  -31.6660 C   0  0  0  0  0  0  0  0  0  0  0  0
    9.7260  -35.6940  -33.6900 C   0  0  0  0  0  0  0  0  0  0  0  0
   11.3470  -34.4060  -34.6820 O   0  0  0  0  0  0  0  0  0  0  0  0
    5.6600  -35.0110  -36.1830 C   0  0  0  0  0  0  0  0  0  0  0  0
   10.4500  -32.1710  -30.0550 C   0  0  0  0  0  0  0  0  0  0  0  0
    8.5260  -34.0160  -32.9360 C   0  0  0  0  0  0  0  0  0  0  0  0
   13.3630  -31.8810  -27.6050 O   0  0  0  0  0  0  0  0  0  0  0  0
   11.4020  -34.4200  -30.4510 C   0  0  0  0  0  0  0  0  0  0  0  0
    8.2220  -32.7720  -31.2300 N   0  0  0  0  0  0  0  0  0  0  0  0
    3.4970  -32.8930  -32.5090 C   0  0  0  0  0  0  0  0  0  0  0  0
    5.1000  -32.9770  -36.8390 C   0  0  0  0  0  0  0  0  0  0  0  0
    9.2040  -33.4700  -31.1670 C   0  0  0  0  0  0  0  0  0  0  0  0
   11.8810  -33.2690  -32.4100 C   0  0  0  0  0  0  0  0  0  0  0  0
    3.7980  -33.5000  -36.2760 C   0  0  0  0  0  0  0  0  0  0  0  0
  1 24  1  0
  1 14  1  0
  2 26  1  0
  3 25  1  0
  4  9  1  0
  5 29  1  0
  6 36  1  0
  7 35  1  0
  7 28  1  0
  8 34  1  0
  9 15  1  0
 10 19  1  0
 11 31  2  0
 11 17  1  0
 13 30  1  0
 13 16  1  0
 14 22  1  0
 15 26  1  0
 15 30  1  0
 16 20  1  0
 18 11  1  0
 19 37  1  0
 19  6  1  0
 20 33  1  0
 20 12  2  3
 21 32  1  0
 22  8  1  0
 25 12  1  0
 26 10  1  0
 27 10  2  0
 28  4  1  0
 28 24  1  0
 29 23  1  0
 29 18  1  0
 30  6  1  0
 32  5  1  0
 33 36  1  0
 34  3  1  0
 35 38  1  0
 36  5  1  0
 37 21  1  0
 38  1  1  0
 38 14  1  0
M  END
$$$$

     RDKit          3D

  4  4  0  0  0  0  0  0  0  0999 V2000
    9.8240  -33.6050  -33.0010 C   0  0  0  0  0  0  0  0  0  0  0  0
    8.3900  -33.7720  -32.9330 C   0  0  0  0  0  0  0  0  0  0  0  0
    9.6650  -32.8670  -30.7150 C   0  0  0  0  0  0  0  0  0  0  0  0
    9.3560  -32.9680  -31.8600 C   0  0  0  0  0  0  0  0  0  0  0  0
  1  2  1  0
  1  4  1  0
  2  4  1  0
  4  3  1  0
M  END
$$$$

     RDKit          3D

 11 12  0  0  0  0  0  0  0  0999 V2000
    7.8310  -35.6160  -34.7820 C   0  0  0  0  0  0  0  0  0  0  0  0
    9.6900  -34.9660  -33.4840 C   0  0  0  0  0  0  0  0  0  0  0  0
    6.8470  -32.7000  -32.9850 C   0  0  0  0  0  0  0  0  0  0  0  0
   10.1490  -34.0800  -32.5160 C   0  0  0  0  0  0  0  0  0  0  0  0
    7.9810  -33.5750  -32.9420 C   0  0  0  0  0  0  0  0  0  0  0  0
   10.1490  -32.8940  -30.1740 C   0  0  0  0  0  0  0  0  0  0  0  0
    9.0540  -33.3030  -32.0640 C   0  0  0  0  0  0  0  0  0  0  0  0
    6.7720  -31.6590  -32.0200 C   0  0  0  0  0  0  0  0  0  0  0  0
    8.2610  -34.6220  -33.7690 N   0  0  0  0  0  0  0  0  0  0  0  0
    7.7390  -31.6270  -31.0560 N   0  0  0  0  0  0  0  0  0  0  0  0
    8.7660  -32.5180  -31.0670 C   0  0  0  0  0  0  0  0  0  0  0  0
  1  9  1  0
  2  4  4  0
  3  5  4  0
  3  8  4  0
  4  7  4  0
  5  7  4  0
  7 11  4  0
  8 10  4  0
  9  2  4  0
  9  5  4  0
 11 10  4  0
 11  6  1  0
M  END
$$$$

     RDKit          3D

 35 43  0  0  0  0  0  0  0  0999 V2000
    8.9630  -34.2520  -33.4140 C   0  0  0  0  0  0  0  0  0  0  0  0
    6.1020  -35.2160  -34.8440 C   0  0  0  0  0  0  0  0  0  0  0  0
   12.4250  -33.2920  -29.6030 C   0  0  0  0  0  0  0  0  0  0  0  0
   10.0800  -39.2180  -33.4290 O   0  0  0  0  0  0  0  0  0  0  0  0
    5.2640  -34.2700  -34.3700 N   0  0  0  0  0  0  0  0  0  0  0  0
   10.0830  -33.9720  -30.8920 C   0  0  0  0  0  0  0  0  0  0  0  0
   10.5630  -33.6200  -32.2110 C   0  0  0  0  0  0  0  0  0  0  0  0
   12.6330  -33.6750  -30.9860 C   0  0  0  0  0  0  0  0  0  0  0  0
    8.3850  -36.2680  -34.4520 C   0  0  0  0  0  0  0  0  0  0  0  0
    3.4040  -32.7190  -30.4740 C   0  0  0  0  0  0  0  0  0  0  0  0
    9.3350  -33.3970  -32.8360 C   0  0  0  0  0  0  0  0  0  0  0  0
   11.2010  -32.9410  -29.1390 C   0  0  0  0  0  0  0  0  0  0  0  0
    7.3420  -35.3440  -34.3690 C   0  0  0  0  0  0  0  0  0  0  0  0
    9.5530  -35.5830  -33.9060 C   0  0  0  0  0  0  0  0  0  0  0  0
   11.8290  -33.3750  -32.0250 C   0  0  0  0  0  0  0  0  0  0  0  0
    4.3770  -31.9880  -31.3630 C   0  0  0  0  0  0  0  0  0  0  0  0
    5.6570  -32.0460  -30.8660 O   0  0  0  0  0  0  0  0  0  0  0  0
    8.5480  -37.7110  -34.4190 O   0  0  0  0  0  0  0  0  0  0  0  0
   10.1180  -32.9800  -29.9460 C   0  0  0  0  0  0  0  0  0  0  0  0
    6.9280  -33.2850  -33.1030 C   0  0  0  0  0  0  0  0  0  0  0  0
   10.9470  -35.0310  -34.3530 C   0  0  0  0  0  0  0  0  0  0  0  0
    9.6790  -38.0290  -33.6690 C   0  0  0  0  0  0  0  0  0  0  0  0
   11.2980  -34.1140  -33.4010 C   0  0  0  0  0  0  0  0  0  0  0  0
   12.5790  -33.8160  -33.1790 C   0  0  0  0  0  0  0  0  0  0  0  0
    5.6440  -36.1600  -35.7470 N   0  0  0  0  0  0  0  0  0  0  0  0
   10.1000  -36.8100  -33.0610 C   0  0  0  0  0  0  0  0  0  0  0  0
    8.7140  -32.2810  -32.3090 O   0  0  0  0  0  0  0  0  0  0  0  0
    3.8330  -30.5930  -31.3970 C   0  0  0  0  0  0  0  0  0  0  0  0
    5.6120  -33.3380  -33.4660 C   0  0  0  0  0  0  0  0  0  0  0  0
    7.4310  -32.3430  -32.2710 C   0  0  0  0  0  0  0  0  0  0  0  0
    4.4220  -32.6000  -32.8040 C   0  0  0  0  0  0  0  0  0  0  0  0
    7.7610  -34.1730  -33.6000 C   0  0  0  0  0  0  0  0  0  0  0  0
    6.6990  -31.3860  -31.4800 C   0  0  0  0  0  0  0  0  0  0  0  0
    3.3890  -32.5620  -33.4430 O   0  0  0  0  0  0  0  0  0  0  0  0
   13.4130  -33.2990  -28.7700 O   0  0  0  0  0  0  0  0  0  0  0  0
  2  5  4  0
  2 13  4  0
  3 12  2  0
  3 35  1  0
  5 29  4  0
  6 19  1  0
  7 15  1  0
  7  6  1  0
  8  3  1  0
  9 18  1  0
  9 13  1  0
  9 14  1  0
 11  1  1  0
 11 27  1  0
 11  7  1  0
 13 32  4  0
 14 21  1  0
 14  1  1  0
 14 26  1  0
 15 24  1  0
 15  8  1  0
 16 17  1  0
 16 10  1  0
 18 22  1  0
 19 12  1  0
 20 30  2  0
 22  4  2  0
 22 26  1  0
 23 21  1  0
 23 24  1  0
 23  7  1  0
 23 15  1  0
 25  2  1  0
 27 30  1  0
 28 16  1  0
 29 20  4  0
 29 31  1  0
 30 33  1  0
 31 16  1  0
 32  1  2  0
 32 20  4  0
 33 17  1  0
 34 31  2  0
M  END
$$$$

     RDKit          3D

 24 27  0  0  0  0  0  0  0  0999 V2000
    6.9850  -34.4500  -33.9560 N   0  0  0  0  0  0  0  0  0  0  0  0
    6.1770  -31.7370  -31.2440 C   0  0  0  0  0  0  0  0  0  0  0  0
   12.0720  -33.0270  -30.7240 C   0  0  0  0  0  0  0  0  0  0  0  0
    9.5620  -35.7830  -33.6020 O   0  0  0  0  0  0  0  0  0  0  0  0
    5.3130  -32.9500  -33.1000 C   0  0  0  0  0  0  0  0  0  0  0  0
    9.3310  -36.1830  -34.9300 C   0  0  0  0  0  0  0  0  0  0  0  0
    6.6850  -35.3410  -37.1830 C   0  0  0  0  0  0  0  0  0  0  0  0
   12.0890  -33.7860  -31.8490 C   0  0  0  0  0  0  0  0  0  0  0  0
    7.1170  -35.0390  -35.0790 C   0  0  0  0  0  0  0  0  0  0  0  0
    5.1110  -32.0190  -32.0920 C   0  0  0  0  0  0  0  0  0  0  0  0
    6.5390  -33.4960  -33.2770 C   0  0  0  0  0  0  0  0  0  0  0  0
    8.2770  -35.6720  -35.5940 C   0  0  0  0  0  0  0  0  0  0  0  0
    7.3700  -32.2850  -31.4140 C   0  0  0  0  0  0  0  0  0  0  0  0
    3.8580  -31.4060  -31.9830 O   0  0  0  0  0  0  0  0  0  0  0  0
    6.1610  -34.9710  -36.0770 C   0  0  0  0  0  0  0  0  0  0  0  0
    7.5150  -33.1400  -32.4280 C   0  0  0  0  0  0  0  0  0  0  0  0
    2.6830  -32.1760  -31.7700 C   0  0  0  0  0  0  0  0  0  0  0  0
   10.8700  -34.2900  -32.2760 C   0  0  0  0  0  0  0  0  0  0  0  0
    8.5040  -32.1920  -30.4740 O   0  0  0  0  0  0  0  0  0  0  0  0
    9.6510  -33.7770  -31.7860 C   0  0  0  0  0  0  0  0  0  0  0  0
    9.6740  -32.8040  -30.8390 C   0  0  0  0  0  0  0  0  0  0  0  0
   10.8010  -35.1300  -33.3330 C   0  0  0  0  0  0  0  0  0  0  0  0
   10.8800  -32.5110  -30.2310 C   0  0  0  0  0  0  0  0  0  0  0  0
    8.0940  -35.5140  -36.8690 C   0  0  0  0  0  0  0  0  0  0  0  0
  1 11  1  0
  3 23  4  0
  4 22  1  0
  5 10  4  0
  6  4  1  0
  7 24  1  0
  7 15  1  0
  8  3  4  0
  9 15  1  0
  9  1  1  0
 10 14  1  0
 10  2  4  0
 11  5  4  0
 11 16  4  0
 12 24  1  0
 12  9  1  0
 12  6  1  0
 13  2  4  0
 13 19  1  0
 14 17  1  0
 16 13  4  0
 18  8  4  0
 18 20  4  0
 20 21  4  0
 21 19  1  0
 21 23  4  0
 22 18  1  0
M  END
$$$$

     RDKit          3D

 16 18  0  0  0  0  0  0  0  0999 V2000
    9.0860  -35.8790  -33.4680 C   0  0  0  0  0  0  0  0  0  0  0  0
    9.5320  -35.2660  -33.0280 C   0  0  0  0  0  0  0  0  0  0  0  0
    9.8670  -33.2800  -33.3600 C   0  0  0  0  0  0  0  0  0  0  0  0
    5.8780  -31.3430  -32.5710 O   0  0  0  0  0  0  0  0  0  0  0  0
    8.5550  -33.7370  -33.2190 C   0  0  0  0  0  0  0  0  0  0  0  0
    7.0170  -32.0540  -32.2810 C   0  0  0  0  0  0  0  0  0  0  0  0
    7.7890  -32.1850  -31.0610 C   0  0  0  0  0  0  0  0  0  0  0  0
    8.7170  -34.7970  -35.4120 F   0  0  0  0  0  0  0  0  0  0  0  0
    5.5870  -34.8830  -35.4220 O   0  0  0  0  0  0  0  0  0  0  0  0
    8.1140  -35.2410  -34.2560 C   0  0  0  0  0  0  0  0  0  0  0  0
    6.2560  -34.3260  -34.8840 C   0  0  0  0  0  0  0  0  0  0  0  0
    7.8890  -34.3890  -32.9400 C   0  0  0  0  0  0  0  0  0  0  0  0
    6.5530  -33.5830  -33.0680 C   0  0  0  0  0  0  0  0  0  0  0  0
    5.9860  -33.7250  -34.0130 C   0  0  0  0  0  0  0  0  0  0  0  0
    6.9370  -35.7680  -34.7530 C   0  0  0  0  0  0  0  0  0  0  0  0
   10.1990  -34.3250  -32.1840 C   0  0  0  0  0  0  0  0  0  0  0  0
  2  1  1  0
  2 16  1  0
  3 16  1  0
  4  6  1  0
  5  3  1  0
  5  2  1  0
  5 12  1  0
  6  7  1  0
 10  8  1  0
 10  1  1  0
 10 12  1  0
 11  9  1  0
 11 15  1  0
 11 14  1  0
 13 12  1  0
 13  6  1  0
 14 13  1  0
 15 10  1  0
M  END
$$$$

     RDKit          3D

 29 31  0  0  0  0  0  0  0  0999 V2000
    8.9690  -35.1800  -33.8700 N   0  0  0  0  0  0  0  0  0  0  0  0
   12.1100  -33.9880  -33.6770 O   0  0  0  0  0  0  0  0  0  0  0  0
    3.3730  -32.9760  -33.7400 C   0  0  0  0  0  0  0  0  0  0  0  0
   10.5220  -33.8730  -29.4630 C   0  0  0  0  0  0  0  0  0  0  0  0
   11.5880  -35.1660  -34.2060 C   0  0  0  0  0  0  0  0  0  0  0  0
    6.2480  -31.6680  -30.8410 O   0  0  0  0  0  0  0  0  0  0  0  0
   12.6890  -33.7110  -30.9840 C   0  0  0  0  0  0  0  0  0  0  0  0
   10.2100  -37.1510  -34.5890 C   0  0  0  0  0  0  0  0  0  0  0  0
    5.8290  -35.0880  -35.8250 C   0  0  0  0  0  0  0  0  0  0  0  0
   11.7860  -33.5990  -28.7830 C   0  0  0  0  0  0  0  0  0  0  0  0
    7.5940  -32.1990  -32.2250 N   0  0  0  0  0  0  0  0  0  0  0  0
   11.2350  -33.3100  -32.7640 C   0  0  0  0  0  0  0  0  0  0  0  0
   10.2120  -35.8210  -33.8410 C   0  0  0  0  0  0  0  0  0  0  0  0
   11.6230  -32.1910  -28.0700 C   0  0  0  0  0  0  0  0  0  0  0  0
    5.1860  -34.2060  -34.8220 C   0  0  0  0  0  0  0  0  0  0  0  0
    3.8260  -33.8230  -34.8730 C   0  0  0  0  0  0  0  0  0  0  0  0
   11.5190  -33.8920  -31.4490 C   0  0  0  0  0  0  0  0  0  0  0  0
   12.8690  -33.3710  -29.6520 C   0  0  0  0  0  0  0  0  0  0  0  0
    2.4640  -31.4540  -31.7510 C   0  0  0  0  0  0  0  0  0  0  0  0
    7.2080  -35.5140  -35.6750 C   0  0  0  0  0  0  0  0  0  0  0  0
    3.8570  -31.7070  -31.7040 O   0  0  0  0  0  0  0  0  0  0  0  0
   12.8910  -32.1160  -27.3080 O   0  0  0  0  0  0  0  0  0  0  0  0
    7.2450  -34.2930  -33.7040 N   0  0  0  0  0  0  0  0  0  0  0  0
   10.4590  -34.0920  -30.6960 C   0  0  0  0  0  0  0  0  0  0  0  0
    6.0260  -33.6870  -33.8270 C   0  0  0  0  0  0  0  0  0  0  0  0
    6.4620  -32.1750  -31.8900 C   0  0  0  0  0  0  0  0  0  0  0  0
    4.2370  -32.4120  -32.8250 C   0  0  0  0  0  0  0  0  0  0  0  0
    5.6060  -32.7870  -32.9610 C   0  0  0  0  0  0  0  0  0  0  0  0
    7.7550  -35.1340  -34.5310 C   0  0  0  0  0  0  0  0  0  0  0  0
  1 13  1  0
  2 12  1  0
  3 27  4  0
  4 10  1  0
  5 13  1  0
  5  2  1  0
  7 18  1  0
  9 20  4  0
  9 15  4  0
 10 14  1  0
 11 26  1  0
 13  8  1  0
 14 22  1  0
 15 25  4  0
 16 15  4  0
 16  3  4  0
 17 12  1  0
 17  7  1  0
 17 24  1  0
 18 10  1  0
 19 21  1  0
 20 29  4  0
 24  4  2  0
 25 23  4  0
 25 28  4  0
 26  6  2  0
 27 21  1  0
 28 27  4  0
 28 26  1  0
 29  1  1  0
 29 23  4  0
M  END
$$$$

     RDKit          3D

 21 23  0  0  0  0  0  0  0  0999 V2000
    4.7810  -32.8730  -34.1290 C   0  0  0  0  0  0  0  0  0  0  0  0
   11.9620  -33.0980  -29.6360 C   0  0  0  0  0  0  0  0  0  0  0  0
   10.5340  -32.4890  -32.1450 C   0  0  0  0  0  0  0  0  0  0  0  0
    7.7270  -32.8770  -32.7720 C   0  0  0  0  0  0  0  0  0  0  0  0
   11.1910  -34.1580  -32.9450 C   0  0  0  0  0  0  0  0  0  0  0  0
    6.5840  -34.7670  -34.2660 C   0  0  0  0  0  0  0  0  0  0  0  0
    5.9200  -34.4860  -35.0880 C   0  0  0  0  0  0  0  0  0  0  0  0
   12.0600  -32.6630  -28.1750 C   0  0  0  0  0  0  0  0  0  0  0  0
    4.3310  -33.8940  -34.7510 C   0  0  0  0  0  0  0  0  0  0  0  0
   13.0230  -32.3690  -27.5580 O   0  0  0  0  0  0  0  0  0  0  0  0
    8.0500  -33.9480  -33.1510 C   0  0  0  0  0  0  0  0  0  0  0  0
    7.2100  -34.7110  -34.5590 C   0  0  0  0  0  0  0  0  0  0  0  0
   10.2200  -34.3990  -30.8070 C   0  0  0  0  0  0  0  0  0  0  0  0
    9.7320  -34.0210  -33.1270 C   0  0  0  0  0  0  0  0  0  0  0  0
   10.9820  -33.7040  -30.0170 C   0  0  0  0  0  0  0  0  0  0  0  0
    3.8460  -34.4880  -35.8030 C   0  0  0  0  0  0  0  0  0  0  0  0
    6.1830  -33.1140  -33.2840 C   0  0  0  0  0  0  0  0  0  0  0  0
    9.1560  -35.4090  -33.6620 C   0  0  0  0  0  0  0  0  0  0  0  0
    8.4770  -34.9140  -34.1750 C   0  0  0  0  0  0  0  0  0  0  0  0
    4.5160  -34.8970  -36.9890 C   0  0  0  0  0  0  0  0  0  0  0  0
   10.1790  -33.5970  -31.8500 C   0  0  0  0  0  0  0  0  0  0  0  0
  1 17  1  0
  2  8  1  0
  5 21  1  0
  7  6  1  0
  8 10  2  0
  9  1  1  0
 11 14  1  0
 11  4  1  0
 12  6  1  0
 12 19  1  0
 12 11  1  0
 13 15  1  0
 14 18  1  0
 14  5  1  0
 14 21  1  0
 15  2  1  0
 16  9  1  0
 17  4  1  0
 19 18  1  0
 19 11  1  0
 20 16  1  0
 21  3  1  0
 21 13  1  0
M  END
$$$$

     RDKit          3D

 27 30  0  0  0  0  0  0  0  0999 V2000
    3.1960  -32.9430  -32.1300 O   0  0  0  0  0  0  0  0  0  0  0  0
   11.3590  -34.5430  -33.8840 C   0  0  0  0  0  0  0  0  0  0  0  0
   10.6310  -33.0350  -31.0160 C   0  0  0  0  0  0  0  0  0  0  0  0
    7.9130  -32.9280  -32.6770 C   0  0  0  0  0  0  0  0  0  0  0  0
    6.3700  -35.0230  -35.1570 O   0  0  0  0  0  0  0  0  0  0  0  0
    6.5490  -31.6030  -31.8720 C   0  0  0  0  0  0  0  0  0  0  0  0
   11.5860  -34.0080  -30.6550 C   0  0  0  0  0  0  0  0  0  0  0  0
   10.8140  -32.1250  -28.8000 C   0  0  0  0  0  0  0  0  0  0  0  0
   12.2750  -33.9480  -29.5190 C   0  0  0  0  0  0  0  0  0  0  0  0
    5.9330  -32.5700  -32.4220 C   0  0  0  0  0  0  0  0  0  0  0  0
    9.2580  -35.9540  -33.7730 C   0  0  0  0  0  0  0  0  0  0  0  0
   10.3210  -36.6060  -33.9790 C   0  0  0  0  0  0  0  0  0  0  0  0
    9.2430  -34.6530  -33.4100 C   0  0  0  0  0  0  0  0  0  0  0  0
    5.8950  -33.5110  -33.4520 C   0  0  0  0  0  0  0  0  0  0  0  0
    6.4870  -34.2810  -34.1350 C   0  0  0  0  0  0  0  0  0  0  0  0
   11.2780  -35.8110  -34.2200 C   0  0  0  0  0  0  0  0  0  0  0  0
    7.9580  -31.9390  -32.0630 N   0  0  0  0  0  0  0  0  0  0  0  0
   10.1690  -32.1820  -30.0500 C   0  0  0  0  0  0  0  0  0  0  0  0
    4.4500  -33.3340  -33.9500 C   0  0  0  0  0  0  0  0  0  0  0  0
   10.3270  -33.9940  -33.1530 C   0  0  0  0  0  0  0  0  0  0  0  0
    8.2340  -33.8060  -33.2340 N   0  0  0  0  0  0  0  0  0  0  0  0
    3.8890  -34.4580  -34.6750 O   0  0  0  0  0  0  0  0  0  0  0  0
   10.3990  -32.8990  -32.3540 N   0  0  0  0  0  0  0  0  0  0  0  0
   11.8450  -33.0400  -28.5420 C   0  0  0  0  0  0  0  0  0  0  0  0
    8.2040  -36.6360  -33.7000 F   0  0  0  0  0  0  0  0  0  0  0  0
    3.1490  -32.7000  -33.0500 C   0  0  0  0  0  0  0  0  0  0  0  0
    7.4060  -33.1400  -33.5750 C   0  0  0  0  0  0  0  0  0  0  0  0
  2 20  1  0
  3  7  4  0
  3 18  4  0
  4 17  1  0
  5 15  2  0
  7  9  4  0
  8 24  4  0
  9 24  4  0
 10  6  1  0
 11 25  1  0
 11 13  1  0
 12 11  1  0
 13 21  1  0
 13 20  1  0
 14 15  1  0
 14 10  1  0
 16 12  1  0
 16  2  2  0
 17  6  1  0
 18  8  4  0
 19 22  1  0
 19 14  1  0
 19 26  1  0
 20 23  1  0
 21  4  1  0
 23  3  1  0
 26  1  1  0
 27 14  1  0
 27 21  1  0
 27  4  1  0
M  END
$$$$

     RDKit          3D

 25 28  0  0  0  0  0  0  0  0999 V2000
    4.4710  -32.1490  -32.2490 C   0  0  0  0  0  0  0  0  0  0  0  0
   11.6820  -32.9050  -29.7790 C   0  0  0  0  0  0  0  0  0  0  0  0
    6.7730  -34.0560  -33.7910 C   0  0  0  0  0  0  0  0  0  0  0  0
   11.6210  -33.6970  -31.1260 C   0  0  0  0  0  0  0  0  0  0  0  0
    8.4300  -36.1790  -33.9910 C   0  0  0  0  0  0  0  0  0  0  0  0
   11.2230  -35.7640  -33.2690 C   0  0  0  0  0  0  0  0  0  0  0  0
    5.9460  -35.6440  -35.2580 C   0  0  0  0  0  0  0  0  0  0  0  0
    8.0340  -32.9860  -32.3280 C   0  0  0  0  0  0  0  0  0  0  0  0
    9.0090  -34.8610  -33.6360 C   0  0  0  0  0  0  0  0  0  0  0  0
    3.4630  -31.6720  -31.9540 C   0  0  0  0  0  0  0  0  0  0  0  0
    9.2230  -32.8300  -31.4850 C   0  0  0  0  0  0  0  0  0  0  0  0
    9.3160  -37.3510  -33.5560 C   0  0  0  0  0  0  0  0  0  0  0  0
    8.0470  -33.8130  -33.3520 N   0  0  0  0  0  0  0  0  0  0  0  0
   10.3510  -33.6360  -31.9100 N   0  0  0  0  0  0  0  0  0  0  0  0
    5.4890  -32.4440  -32.8050 C   0  0  0  0  0  0  0  0  0  0  0  0
    5.2760  -33.6760  -33.6590 C   0  0  0  0  0  0  0  0  0  0  0  0
    4.7060  -35.1220  -35.3650 C   0  0  0  0  0  0  0  0  0  0  0  0
    4.4130  -34.0750  -34.4840 C   0  0  0  0  0  0  0  0  0  0  0  0
    9.2490  -32.0330  -30.4900 O   0  0  0  0  0  0  0  0  0  0  0  0
    6.7240  -31.2200  -31.2810 O   0  0  0  0  0  0  0  0  0  0  0  0
    6.7430  -32.1570  -32.0080 C   0  0  0  0  0  0  0  0  0  0  0  0
   10.6100  -37.0770  -33.7940 C   0  0  0  0  0  0  0  0  0  0  0  0
   10.0790  -34.9570  -32.5650 C   0  0  0  0  0  0  0  0  0  0  0  0
   11.3770  -37.8480  -34.4590 N   0  0  0  0  0  0  0  0  0  0  0  0
    6.7720  -34.7200  -34.4220 C   0  0  0  0  0  0  0  0  0  0  0  0
  1 10  3  0
  3 16  4  0
  3 13  1  0
  4  2  1  0
  5 12  1  0
  7 25  4  0
  8 21  1  0
  8 11  1  0
  9  5  1  0
  9 13  1  0
  9 23  1  0
 11 19  2  0
 13  8  1  0
 14 11  1  0
 14  4  1  0
 15  1  1  0
 15 21  1  0
 16 15  1  0
 17  7  4  0
 17 18  4  0
 18 16  4  0
 21 20  2  0
 22 12  1  0
 22  6  1  0
 23  6  1  0
 23 14  1  0
 24 22  2  0
 25  3  4  0
M  END
$$$$

     RDKit          3D

 19 22  0  0  0  0  0  0  0  0999 V2000
   11.5540  -35.0100  -33.8560 C   0  0  0  0  0  0  0  0  0  0  0  0
   10.0830  -36.8230  -33.5000 C   0  0  0  0  0  0  0  0  0  0  0  0
    7.4580  -34.3000  -34.4790 C   0  0  0  0  0  0  0  0  0  0  0  0
    5.3620  -31.2960  -30.9550 C   0  0  0  0  0  0  0  0  0  0  0  0
    6.1710  -32.6700  -32.9510 C   0  0  0  0  0  0  0  0  0  0  0  0
    9.2600  -32.6190  -31.6390 C   0  0  0  0  0  0  0  0  0  0  0  0
    7.3870  -31.7480  -31.3570 C   0  0  0  0  0  0  0  0  0  0  0  0
   11.2660  -33.5120  -31.2250 O   0  0  0  0  0  0  0  0  0  0  0  0
   10.4330  -33.1150  -30.8540 C   0  0  0  0  0  0  0  0  0  0  0  0
    9.2080  -35.4640  -34.8190 C   0  0  0  0  0  0  0  0  0  0  0  0
   10.4310  -32.9330  -29.6950 C   0  0  0  0  0  0  0  0  0  0  0  0
    6.9710  -33.5600  -33.3360 C   0  0  0  0  0  0  0  0  0  0  0  0
    8.3140  -35.3750  -35.3010 C   0  0  0  0  0  0  0  0  0  0  0  0
    6.5050  -31.8290  -32.1220 C   0  0  0  0  0  0  0  0  0  0  0  0
    8.8530  -34.6910  -33.3300 C   0  0  0  0  0  0  0  0  0  0  0  0
   10.0530  -35.4280  -33.4360 C   0  0  0  0  0  0  0  0  0  0  0  0
    7.8800  -33.8420  -32.8290 C   0  0  0  0  0  0  0  0  0  0  0  0
    8.9150  -33.5990  -32.6230 C   0  0  0  0  0  0  0  0  0  0  0  0
    8.2530  -34.9800  -34.5240 C   0  0  0  0  0  0  0  0  0  0  0  0
  1 16  1  0
  2 16  1  0
  3 12  2  0
  5 14  1  0
  6  9  1  0
  8  9  2  0
  9 11  1  0
 10 13  1  0
 10 19  1  0
 10 16  1  0
 12  5  1  0
 14  7  2  0
 14  4  1  0
 15 16  1  0
 15 17  1  0
 15 18  1  0
 17 12  1  0
 17 18  1  0
 18  6  1  0
 19 13  1  0
 19  3  1  0
 19 15  1  0
M  END
$$$$

     RDKit          3D

 17 20  0  0  0  0  0  0  0  0999 V2000
   11.4670  -34.7020  -34.0350 S   0  0  0  0  0  0  0  0  0  0  0  0
    9.0390  -36.0590  -33.9020 C   0  0  0  0  0  0  0  0  0  0  0  0
    8.8860  -34.9960  -34.0380 C   0  0  0  0  0  0  0  0  0  0  0  0
    5.9140  -32.4780  -32.8790 C   0  0  0  0  0  0  0  0  0  0  0  0
    8.6590  -35.0300  -33.6910 C   0  0  0  0  0  0  0  0  0  0  0  0
    6.3020  -31.7870  -31.8570 C   0  0  0  0  0  0  0  0  0  0  0  0
    7.8460  -33.7600  -33.1570 C   0  0  0  0  0  0  0  0  0  0  0  0
   10.4100  -37.4590  -33.7570 C   0  0  0  0  0  0  0  0  0  0  0  0
    7.4510  -31.7990  -31.2780 C   0  0  0  0  0  0  0  0  0  0  0  0
    8.7960  -36.3040  -33.2470 C   0  0  0  0  0  0  0  0  0  0  0  0
    6.4600  -33.5040  -33.4540 C   0  0  0  0  0  0  0  0  0  0  0  0
    9.2580  -34.1200  -32.5470 C   0  0  0  0  0  0  0  0  0  0  0  0
   10.1060  -34.1490  -33.5220 C   0  0  0  0  0  0  0  0  0  0  0  0
    8.5800  -32.3520  -31.2720 C   0  0  0  0  0  0  0  0  0  0  0  0
    8.5730  -33.0220  -32.1780 C   0  0  0  0  0  0  0  0  0  0  0  0
    9.8040  -36.6490  -33.6730 C   0  0  0  0  0  0  0  0  0  0  0  0
   10.7100  -34.1420  -31.5860 S   0  0  0  0  0  0  0  0  0  0  0  0
  1 13  1  0
  2 16  1  0
  2 10  1  0
  3  2  1  0
  4  6  1  0
  5  3  1  0
  5 10  1  0
  5  7  1  0
  5 12  1  0
  6  9  2  0
  7 11  1  0
  7 12  1  0
  7 15  1  0
  8 16  3  0
  9 14  1  0
 11  4  1  0
 12 13  1  0
 12 15  1  0
 13 17  1  0
 15 14  1  0
M  END
$$$$

     RDKit          3D

 32 38  0  0  0  0  0  0  0  0999 V2000
    8.3800  -31.4540  -30.6290 O   0  0  0  0  0  0  0  0  0  0  0  0
   10.7590  -33.7790  -32.2200 C   0  0  0  0  0  0  0  0  0  0  0  0
    5.1420  -34.0360  -35.9730 C   0  0  0  0  0  0  0  0  0  0  0  0
    8.3650  -33.4780  -32.6540 C   0  0  0  0  0  0  0  0  0  0  0  0
   12.4300  -32.7870  -29.1130 N   0  0  0  0  0  0  0  0  0  0  0  0
    5.7840  -34.0040  -34.7140 C   0  0  0  0  0  0  0  0  0  0  0  0
    4.9550  -33.3070  -33.8410 N   0  0  0  0  0  0  0  0  0  0  0  0
    3.7290  -33.5630  -35.8010 C   0  0  0  0  0  0  0  0  0  0  0  0
    4.7790  -32.0760  -31.7750 C   0  0  0  0  0  0  0  0  0  0  0  0
    5.5800  -33.0410  -32.5400 C   0  0  0  0  0  0  0  0  0  0  0  0
    2.7710  -33.5610  -36.9520 C   0  0  0  0  0  0  0  0  0  0  0  0
    9.4410  -37.1550  -35.1010 O   0  0  0  0  0  0  0  0  0  0  0  0
   10.8170  -34.8480  -33.2700 C   0  0  0  0  0  0  0  0  0  0  0  0
    3.7210  -32.9160  -34.4560 C   0  0  0  0  0  0  0  0  0  0  0  0
    7.5070  -35.7660  -35.0320 N   0  0  0  0  0  0  0  0  0  0  0  0
    6.9950  -32.7030  -32.5590 C   0  0  0  0  0  0  0  0  0  0  0  0
    5.7770  -31.2180  -31.4570 O   0  0  0  0  0  0  0  0  0  0  0  0
   11.7610  -32.2280  -28.0020 N   0  0  0  0  0  0  0  0  0  0  0  0
    9.5290  -33.2030  -31.8380 C   0  0  0  0  0  0  0  0  0  0  0  0
   10.4190  -32.3340  -29.8050 C   0  0  0  0  0  0  0  0  0  0  0  0
    4.6780  -33.9840  -38.3890 C   0  0  0  0  0  0  0  0  0  0  0  0
   11.6910  -32.8430  -30.1780 C   0  0  0  0  0  0  0  0  0  0  0  0
    9.3780  -32.2630  -30.7590 C   0  0  0  0  0  0  0  0  0  0  0  0
    7.0040  -34.6990  -34.3730 C   0  0  0  0  0  0  0  0  0  0  0  0
   10.5240  -31.9460  -28.4760 C   0  0  0  0  0  0  0  0  0  0  0  0
   11.9690  -33.3640  -31.5270 C   0  0  0  0  0  0  0  0  0  0  0  0
    9.4870  -35.1660  -33.7540 C   0  0  0  0  0  0  0  0  0  0  0  0
    5.5510  -34.2500  -37.3260 C   0  0  0  0  0  0  0  0  0  0  0  0
    8.2710  -34.3410  -33.4940 C   0  0  0  0  0  0  0  0  0  0  0  0
    2.7350  -32.0940  -33.8240 C   0  0  0  0  0  0  0  0  0  0  0  0
    8.8470  -36.0650  -34.5980 C   0  0  0  0  0  0  0  0  0  0  0  0
    3.2110  -33.9360  -38.1580 C   0  0  0  0  0  0  0  0  0  0  0  0
  2 19  4  0
  2 26  1  0
  3  8  4  0
  3  6  4  0
  4 16  1  0
  4 19  4  0
  5 18  4  0
  6 24  1  0
  6  7  4  0
  7 10  1  0
  8 14  4  0
  9 17  1  0
 10  9  1  0
 11  8  4  0
 12 31  2  0
 13  2  4  0
 14  7  4  0
 14 30  1  0
 15 31  1  0
 15 24  2  0
 16 10  1  0
 19 23  1  0
 20 25  4  0
 21 32  4  0
 21 28  4  0
 22 20  4  0
 22  5  4  0
 23  1  1  0
 23 20  1  0
 24 29  1  0
 25 18  4  0
 26 22  1  0
 27 29  4  0
 27 13  4  0
 28  3  4  0
 29  4  4  0
 31 27  1  0
 32 11  4  0
M  END
$$$$

     RDKit          3D

 11 12  0  0  0  0  0  0  0  0999 V2000
    9.1690  -32.7400  -32.0230 C   0  0  0  0  0  0  0  0  0  0  0  0
    7.1250  -34.0410  -33.7140 C   0  0  0  0  0  0  0  0  0  0  0  0
    6.3770  -34.6370  -34.7730 C   0  0  0  0  0  0  0  0  0  0  0  0
    8.2080  -34.5940  -33.6400 C   0  0  0  0  0  0  0  0  0  0  0  0
    7.7470  -32.4260  -31.7320 C   0  0  0  0  0  0  0  0  0  0  0  0
    6.6630  -35.6530  -35.5440 C   0  0  0  0  0  0  0  0  0  0  0  0
    9.3950  -34.1360  -32.6460 C   0  0  0  0  0  0  0  0  0  0  0  0
    8.7420  -35.6670  -34.6050 C   0  0  0  0  0  0  0  0  0  0  0  0
    6.7590  -32.9240  -32.8230 C   0  0  0  0  0  0  0  0  0  0  0  0
    5.7250  -32.3760  -32.9140 O   0  0  0  0  0  0  0  0  0  0  0  0
    7.8470  -35.9940  -35.3380 C   0  0  0  0  0  0  0  0  0  0  0  0
  1  5  1  0
  2  4  4  0
  2  9  1  0
  3  2  4  0
  4  7  1  0
  6 11  4  0
  6  3  4  0
  7  1  1  0
  8  4  4  0
  9  5  1  0
 10  9  2  0
 11  8  4  0
M  END
$$$$

     RDKit          3D

 10 10  0  0  0  0  0  0  0  0999 V2000
    6.8620  -35.3050  -35.3150 C   0  0  0  0  0  0  0  0  0  0  0  0
    6.4840  -34.0060  -33.9000 C   0  0  0  0  0  0  0  0  0  0  0  0
    3.8420  -35.3280  -37.3130 C   0  0  0  0  0  0  0  0  0  0  0  0
    7.1270  -35.2050  -36.9350 C   0  0  0  0  0  0  0  0  0  0  0  0
    5.7000  -35.6140  -36.0910 C   0  0  0  0  0  0  0  0  0  0  0  0
    7.3920  -34.8730  -34.0800 N   0  0  0  0  0  0  0  0  0  0  0  0
    3.5000  -35.8470  -36.1390 C   0  0  0  0  0  0  0  0  0  0  0  0
    7.4130  -33.1650  -32.6610 C   0  0  0  0  0  0  0  0  0  0  0  0
    8.1160  -35.6370  -34.4900 N   0  0  0  0  0  0  0  0  0  0  0  0
    4.7150  -36.0970  -36.6680 C   0  0  0  0  0  0  0  0  0  0  0  0
  1  6  1  0
  2  8  1  0
  3 10  1  0
  3  7  1  0
  5  4  1  0
  5  1  1  0
  6  2  1  0
  9  6  1  0
 10  7  1  0
 10  5  1  0
M  END
$$$$

     RDKit          3D

  8  8  0  0  0  0  0  0  0  0999 V2000
    8.8720  -34.0720  -32.7860 C   0  0  0  0  0  0  0  0  0  0  0  0
    7.6450  -34.0230  -33.5680 C   0  0  0  0  0  0  0  0  0  0  0  0
    9.4820  -33.0810  -32.0510 C   0  0  0  0  0  0  0  0  0  0  0  0
    6.6780  -32.8690  -33.1790 C   0  0  0  0  0  0  0  0  0  0  0  0
   10.7420  -34.8740  -31.8920 C   0  0  0  0  0  0  0  0  0  0  0  0
    7.0370  -34.9980  -34.4030 C   0  0  0  0  0  0  0  0  0  0  0  0
    9.6810  -35.2760  -32.6670 C   0  0  0  0  0  0  0  0  0  0  0  0
   10.5630  -33.6000  -31.5120 N   0  0  0  0  0  0  0  0  0  0  0  0
  1  7  2  0
  1  3  1  0
  2  4  1  0
  2  1  1  0
  3  8  1  0
  5  8  2  0
  6  2  1  0
  7  5  1  0
M  END
$$$$

     RDKit          3D

 13 14  0  0  0  0  0  0  0  0999 V2000
    8.7200  -31.9080  -30.2020 C   0  0  0  0  0  0  0  0  0  0  0  0
    8.2640  -33.3570  -32.3250 C   0  0  0  0  0  0  0  0  0  0  0  0
    9.3840  -37.1240  -34.1520 N   0  0  0  0  0  0  0  0  0  0  0  0
    7.0750  -32.8400  -32.7830 C   0  0  0  0  0  0  0  0  0  0  0  0
    7.9270  -35.1900  -33.9610 C   0  0  0  0  0  0  0  0  0  0  0  0
    6.6990  -31.6950  -32.0280 O   0  0  0  0  0  0  0  0  0  0  0  0
    8.3910  -36.4800  -34.5140 C   0  0  0  0  0  0  0  0  0  0  0  0
    9.9700  -36.4030  -33.4250 C   0  0  0  0  0  0  0  0  0  0  0  0
    6.8670  -34.5920  -34.3910 C   0  0  0  0  0  0  0  0  0  0  0  0
    9.9100  -35.2750  -32.7100 C   0  0  0  0  0  0  0  0  0  0  0  0
    8.7140  -34.5640  -32.9680 C   0  0  0  0  0  0  0  0  0  0  0  0
    6.3590  -33.4130  -33.7380 C   0  0  0  0  0  0  0  0  0  0  0  0
    8.9470  -32.6500  -31.3330 N   0  0  0  0  0  0  0  0  0  0  0  0
  2 13  1  0
  3  8  4  0
  4  2  4  0
  4  6  1  0
  5 11  4  0
  7  3  4  0
  7  5  4  0
  8 10  4  0
  9  5  4  0
  9 12  4  0
 11 10  4  0
 11  2  4  0
 12  4  4  0
 13  1  1  0
M  END
$$$$

     RDKit          3D

 20 24  0  0  0  0  0  0  0  0999 V2000
    7.8640  -34.4290  -34.0320 N   0  0  0  0  0  0  0  0  0  0  0  0
    7.5890  -32.6260  -31.4830 C   0  0  0  0  0  0  0  0  0  0  0  0
   10.5610  -33.9440  -32.1340 C   0  0  0  0  0  0  0  0  0  0  0  0
    8.4040  -33.1150  -32.4800 C   0  0  0  0  0  0  0  0  0  0  0  0
    8.3810  -34.0640  -33.4380 C   0  0  0  0  0  0  0  0  0  0  0  0
    5.9530  -32.3320  -32.5890 C   0  0  0  0  0  0  0  0  0  0  0  0
    8.2750  -35.2630  -34.8400 C   0  0  0  0  0  0  0  0  0  0  0  0
    7.2240  -35.5540  -35.3780 C   0  0  0  0  0  0  0  0  0  0  0  0
    5.6730  -34.0660  -34.4670 C   0  0  0  0  0  0  0  0  0  0  0  0
   11.2410  -34.3260  -33.1540 O   0  0  0  0  0  0  0  0  0  0  0  0
    5.2950  -31.5660  -31.7250 C   0  0  0  0  0  0  0  0  0  0  0  0
    7.4200  -34.6060  -34.3850 C   0  0  0  0  0  0  0  0  0  0  0  0
    7.1520  -33.5740  -33.5400 C   0  0  0  0  0  0  0  0  0  0  0  0
    9.2420  -33.8250  -32.3870 C   0  0  0  0  0  0  0  0  0  0  0  0
    7.1120  -31.7400  -30.7510 C   0  0  0  0  0  0  0  0  0  0  0  0
   10.7050  -32.9070  -31.4760 O   0  0  0  0  0  0  0  0  0  0  0  0
    6.4450  -33.8520  -33.5840 C   0  0  0  0  0  0  0  0  0  0  0  0
    6.9220  -33.1360  -32.5940 C   0  0  0  0  0  0  0  0  0  0  0  0
    6.5520  -31.9080  -31.7770 C   0  0  0  0  0  0  0  0  0  0  0  0
    8.7600  -34.9660  -34.1460 C   0  0  0  0  0  0  0  0  0  0  0  0
  1 20  1  0
  1 13  1  0
  1  5  1  0
  2 15  1  0
  3 16  1  0
  4 14  1  0
  4  2  1  0
  5  4  1  0
  6 18  1  0
  6 19  1  0
  6 11  1  0
  7  8  1  0
  7 12  1  0
  7 20  1  0
  9 17  2  0
 10  3  1  0
 12  8  1  0
 12  1  1  0
 13 17  1  0
 13 18  1  0
 14  3  1  0
 19 11  1  0
 19  2  1  0
 19 15  1  0
M  END
$$$$

     RDKit          3D

 16 17  0  0  0  0  0  0  0  0999 V2000
    8.6480  -35.5180  -34.2760 C   0  0  0  0  0  0  0  0  0  0  0  0
    5.6750  -33.2060  -33.2470 C   0  0  0  0  0  0  0  0  0  0  0  0
    6.9450  -34.1780  -34.1030 C   0  0  0  0  0  0  0  0  0  0  0  0
    6.8930  -35.2960  -35.5260 C   0  0  0  0  0  0  0  0  0  0  0  0
    5.9370  -34.9370  -35.0580 C   0  0  0  0  0  0  0  0  0  0  0  0
    5.6210  -35.5740  -35.7410 C   0  0  0  0  0  0  0  0  0  0  0  0
    6.6720  -33.8920  -33.5700 C   0  0  0  0  0  0  0  0  0  0  0  0
    9.2740  -34.6580  -33.2940 C   0  0  0  0  0  0  0  0  0  0  0  0
    6.8910  -33.1990  -33.2940 C   0  0  0  0  0  0  0  0  0  0  0  0
    7.7340  -32.9540  -32.6060 C   0  0  0  0  0  0  0  0  0  0  0  0
    8.8610  -33.6510  -32.6470 C   0  0  0  0  0  0  0  0  0  0  0  0
    5.0040  -33.9410  -34.4860 C   0  0  0  0  0  0  0  0  0  0  0  0
    8.0550  -34.5220  -34.1030 C   0  0  0  0  0  0  0  0  0  0  0  0
    4.4900  -32.9140  -33.6010 C   0  0  0  0  0  0  0  0  0  0  0  0
    9.4700  -34.3310  -33.6850 C   0  0  0  0  0  0  0  0  0  0  0  0
    7.2920  -34.7200  -34.5260 C   0  0  0  0  0  0  0  0  0  0  0  0
  1  8  1  0
  3  7  1  0
  4  6  1  0
  4  5  1  0
  4 16  1  0
  5 16  1  0
  5 12  1  0
  6  5  1  0
  7  9  1  0
  8 11  1  0
  9  2  1  0
  9 10  1  0
 11 10  2  3
 12 14  1  0
 15  8  1  0
 16  3  1  0
 16 13  1  0
M  END
$$$$

     RDKit          3D

 35 39  0  0  0  0  0  0  0  0999 V2000
   10.2330  -33.2060  -31.3420 C   0  0  0  0  0  0  0  0  0  0  0  0
   10.5040  -35.5940  -34.8900 C   0  0  0  0  0  0  0  0  0  0  0  0
   10.5170  -32.7780  -30.0390 C   0  0  0  0  0  0  0  0  0  0  0  0
    9.3100  -34.3870  -33.1630 C   0  0  0  0  0  0  0  0  0  0  0  0
    1.5730  -30.8350  -30.9990 C   0  0  0  0  0  0  0  0  0  0  0  0
   10.4590  -34.7020  -33.7210 C   0  0  0  0  0  0  0  0  0  0  0  0
    7.0380  -32.6270  -32.5010 C   0  0  0  0  0  0  0  0  0  0  0  0
    7.9110  -35.5030  -36.0340 C   0  0  0  0  0  0  0  0  0  0  0  0
    6.1380  -34.8580  -38.1910 O   0  0  0  0  0  0  0  0  0  0  0  0
    8.0680  -32.5930  -31.7980 C   0  0  0  0  0  0  0  0  0  0  0  0
   12.8680  -33.4340  -33.0710 O   0  0  0  0  0  0  0  0  0  0  0  0
   12.2480  -32.6120  -28.3440 C   0  0  0  0  0  0  0  0  0  0  0  0
   12.6430  -33.2540  -30.6750 C   0  0  0  0  0  0  0  0  0  0  0  0
    6.4150  -34.9550  -35.8300 C   0  0  0  0  0  0  0  0  0  0  0  0
    4.4970  -33.8860  -34.5480 N   0  0  0  0  0  0  0  0  0  0  0  0
    9.3340  -33.3580  -32.0290 C   0  0  0  0  0  0  0  0  0  0  0  0
   11.8020  -32.9190  -29.7110 C   0  0  0  0  0  0  0  0  0  0  0  0
    3.8320  -31.7340  -31.6870 C   0  0  0  0  0  0  0  0  0  0  0  0
    4.8680  -32.5230  -32.4790 C   0  0  0  0  0  0  0  0  0  0  0  0
    7.7270  -31.8320  -30.6790 C   0  0  0  0  0  0  0  0  0  0  0  0
    2.8240  -33.3450  -33.1420 O   0  0  0  0  0  0  0  0  0  0  0  0
   12.1650  -33.2290  -31.9710 C   0  0  0  0  0  0  0  0  0  0  0  0
    9.7330  -36.6560  -34.6840 C   0  0  0  0  0  0  0  0  0  0  0  0
    4.1410  -33.2870  -33.3430 C   0  0  0  0  0  0  0  0  0  0  0  0
    4.1870  -34.9060  -36.6760 C   0  0  0  0  0  0  0  0  0  0  0  0
    6.4280  -31.4630  -30.9590 C   0  0  0  0  0  0  0  0  0  0  0  0
    5.6110  -34.9030  -36.8900 C   0  0  0  0  0  0  0  0  0  0  0  0
    8.3640  -36.0690  -34.6880 C   0  0  0  0  0  0  0  0  0  0  0  0
    5.9410  -32.2610  -32.0370 C   0  0  0  0  0  0  0  0  0  0  0  0
    8.3030  -34.9580  -33.7950 C   0  0  0  0  0  0  0  0  0  0  0  0
    3.0960  -31.3500  -30.6170 C   0  0  0  0  0  0  0  0  0  0  0  0
    3.6520  -34.7510  -35.4620 C   0  0  0  0  0  0  0  0  0  0  0  0
   11.0690  -33.3560  -32.1790 N   0  0  0  0  0  0  0  0  0  0  0  0
    9.9730  -37.8710  -34.6660 O   0  0  0  0  0  0  0  0  0  0  0  0
    5.8190  -33.8600  -34.7430 C   0  0  0  0  0  0  0  0  0  0  0  0
  1  3  1  0
  2 23  1  0
  2  6  1  0
  3 17  1  0
  4 16  1  0
  5 31  1  0
  6  4  2  0
  7 29  1  0
  7 10  1  0
  9 27  1  0
 10 20  1  0
 11 22  2  0
 13 17  2  0
 14  8  1  0
 14 35  1  0
 15 24  1  0
 16 10  2  3
 16  1  1  0
 17 12  1  0
 18 31  1  0
 19 29  2  3
 19 18  1  0
 22 13  1  0
 23 34  2  0
 24 21  2  0
 24 19  1  0
 25 32  1  0
 26 20  1  0
 27 25  2  0
 27 14  1  0
 28  8  1  0
 28 23  1  0
 28 30  1  0
 29 26  1  0
 30  4  1  0
 32 15  1  0
 33 22  1  0
 33  1  2  0
 35 15  1  0
M  END
$$$$

     RDKit          3D

 34 38  0  0  0  0  0  0  0  0999 V2000
   10.2640  -35.5620  -32.3200 O   0  0  0  0  0  0  0  0  0  0  0  0
    9.3020  -32.0830  -30.4930 O   0  0  0  0  0  0  0  0  0  0  0  0
    7.4600  -35.4590  -35.3630 N   0  0  0  0  0  0  0  0  0  0  0  0
    4.7790  -32.0560  -32.1940 C   0  0  0  0  0  0  0  0  0  0  0  0
    3.8400  -33.3070  -34.6430 O   0  0  0  0  0  0  0  0  0  0  0  0
   11.7380  -34.3890  -33.4670 C   0  0  0  0  0  0  0  0  0  0  0  0
    5.4080  -31.2740  -31.2280 C   0  0  0  0  0  0  0  0  0  0  0  0
    6.8810  -31.6800  -31.0420 C   0  0  0  0  0  0  0  0  0  0  0  0
   11.3480  -31.5680  -29.4700 O   0  0  0  0  0  0  0  0  0  0  0  0
    6.6680  -35.7760  -37.4070 O   0  0  0  0  0  0  0  0  0  0  0  0
    5.9980  -33.2490  -33.9600 C   0  0  0  0  0  0  0  0  0  0  0  0
    3.6190  -34.3270  -37.4410 C   0  0  0  0  0  0  0  0  0  0  0  0
    6.8860  -33.9520  -33.6340 O   0  0  0  0  0  0  0  0  0  0  0  0
    6.4280  -32.2790  -32.2720 C   0  0  0  0  0  0  0  0  0  0  0  0
    9.8470  -33.1380  -30.8510 C   0  0  0  0  0  0  0  0  0  0  0  0
    8.7820  -33.4740  -32.3180 C   0  0  0  0  0  0  0  0  0  0  0  0
    8.2260  -34.1260  -31.4670 O   0  0  0  0  0  0  0  0  0  0  0  0
    4.5350  -33.6490  -34.9450 C   0  0  0  0  0  0  0  0  0  0  0  0
   10.9920  -34.6870  -32.1190 C   0  0  0  0  0  0  0  0  0  0  0  0
    8.5050  -35.6240  -35.1540 C   0  0  0  0  0  0  0  0  0  0  0  0
   10.0880  -37.2390  -34.0260 C   0  0  0  0  0  0  0  0  0  0  0  0
    9.1060  -32.7960  -32.9570 F   0  0  0  0  0  0  0  0  0  0  0  0
    9.5580  -35.3330  -36.0390 C   0  0  0  0  0  0  0  0  0  0  0  0
   10.4080  -32.8930  -30.4080 C   0  0  0  0  0  0  0  0  0  0  0  0
   11.7800  -35.5590  -34.3030 C   0  0  0  0  0  0  0  0  0  0  0  0
   11.2080  -32.5480  -29.5740 C   0  0  0  0  0  0  0  0  0  0  0  0
    6.9410  -33.0500  -32.8360 C   0  0  0  0  0  0  0  0  0  0  0  0
    4.3320  -35.3640  -36.2310 C   0  0  0  0  0  0  0  0  0  0  0  0
   11.0350  -33.8370  -31.4290 C   0  0  0  0  0  0  0  0  0  0  0  0
    6.6130  -35.3250  -36.1020 C   0  0  0  0  0  0  0  0  0  0  0  0
    5.2320  -34.7420  -35.6330 C   0  0  0  0  0  0  0  0  0  0  0  0
   11.7000  -33.2870  -31.8110 C   0  0  0  0  0  0  0  0  0  0  0  0
    8.6310  -36.8500  -34.4030 C   0  0  0  0  0  0  0  0  0  0  0  0
   10.9270  -36.3650  -33.6580 C   0  0  0  0  0  0  0  0  0  0  0  0
  1 19  1  0
  3 20  1  0
  7  4  1  0
  7  8  1  0
 10 30  2  0
 11 18  1  0
 11 13  1  0
 11 27  1  0
 12 28  1  0
 14  4  1  0
 14  7  1  0
 14  8  1  0
 15  2  1  0
 15 24  1  0
 16 22  1  0
 16 17  1  0
 16 15  1  0
 18  5  2  0
 19  6  1  0
 19 29  1  0
 20 23  1  0
 20 33  1  0
 21 34  1  0
 24 26  1  0
 25  6  1  0
 26  9  2  0
 27 13  1  0
 27 16  1  0
 27 14  1  0
 29 32  1  0
 29 15  1  0
 30 31  1  0
 30  3  1  0
 31 28  1  0
 31 18  1  0
 33 21  1  0
 34 25  1  0
 34  1  1  0
M  END
$$$$

     RDKit          3D

 25 29  0  0  0  0  0  0  0  0999 V2000
    8.2830  -33.0350  -32.2480 C   0  0  0  0  0  0  0  0  0  0  0  0
   12.5770  -33.6620  -31.5360 C   0  0  0  0  0  0  0  0  0  0  0  0
    7.9780  -33.9220  -33.1990 C   0  0  0  0  0  0  0  0  0  0  0  0
   12.3380  -35.2230  -33.2340 F   0  0  0  0  0  0  0  0  0  0  0  0
   12.2560  -33.1450  -33.5350 F   0  0  0  0  0  0  0  0  0  0  0  0
    4.5060  -31.8300  -31.5970 C   0  0  0  0  0  0  0  0  0  0  0  0
    9.5270  -33.0080  -31.8620 C   0  0  0  0  0  0  0  0  0  0  0  0
   11.8970  -34.0600  -32.7540 C   0  0  0  0  0  0  0  0  0  0  0  0
    6.6450  -35.0570  -34.7840 C   0  0  0  0  0  0  0  0  0  0  0  0
   11.8080  -32.4470  -30.8380 C   0  0  0  0  0  0  0  0  0  0  0  0
   10.2790  -34.0100  -32.7480 C   0  0  0  0  0  0  0  0  0  0  0  0
   10.3290  -32.5820  -30.6160 C   0  0  0  0  0  0  0  0  0  0  0  0
    2.0860  -31.3290  -31.4100 C   0  0  0  0  0  0  0  0  0  0  0  0
    5.4630  -33.2250  -33.3680 C   0  0  0  0  0  0  0  0  0  0  0  0
    3.0780  -32.0410  -32.3440 C   0  0  0  0  0  0  0  0  0  0  0  0
    1.9960  -32.6170  -34.1140 O   0  0  0  0  0  0  0  0  0  0  0  0
    6.6900  -34.1610  -33.7510 C   0  0  0  0  0  0  0  0  0  0  0  0
    3.0290  -32.6010  -33.4920 C   0  0  0  0  0  0  0  0  0  0  0  0
    9.0690  -35.6780  -34.5080 C   0  0  0  0  0  0  0  0  0  0  0  0
    7.8660  -35.8600  -35.1350 C   0  0  0  0  0  0  0  0  0  0  0  0
    9.1520  -34.6190  -33.5300 C   0  0  0  0  0  0  0  0  0  0  0  0
    5.5310  -32.4020  -32.1620 C   0  0  0  0  0  0  0  0  0  0  0  0
    5.4770  -35.2390  -35.7160 C   0  0  0  0  0  0  0  0  0  0  0  0
    7.0170  -32.1120  -31.3440 S   0  0  0  0  0  0  0  0  0  0  0  0
    4.2570  -33.4310  -34.0510 C   0  0  0  0  0  0  0  0  0  0  0  0
  1  7  1  0
  1 24  1  0
  2 10  1  0
  3  1  2  0
  4  8  1  0
  5  8  1  0
  7 12  1  0
  8 11  1  0
  8  2  1  0
  9 17  4  0
 10 12  1  0
 11  7  1  0
 14 22  2  0
 15  6  2  0
 15 13  1  0
 16 18  2  0
 17 14  1  0
 17  3  4  0
 18 15  1  0
 19 21  4  0
 20  9  4  0
 20 19  4  0
 21  3  4  0
 21 11  2  0
 22  6  1  0
 22 24  1  0
 23  9  1  0
 25 18  1  0
 25 14  1  0
M  END
$$$$

     RDKit          3D

 15 17  0  0  0  0  0  0  0  0999 V2000
    8.6150  -34.4220  -33.8930 C   0  0  0  0  0  0  0  0  0  0  0  0
    6.6070  -35.3530  -35.1110 C   0  0  0  0  0  0  0  0  0  0  0  0
    5.8190  -31.8420  -32.0450 O   0  0  0  0  0  0  0  0  0  0  0  0
    7.9510  -32.6130  -32.3470 C   0  0  0  0  0  0  0  0  0  0  0  0
   10.9480  -34.8650  -34.1830 C   0  0  0  0  0  0  0  0  0  0  0  0
   10.2920  -33.4080  -32.4670 C   0  0  0  0  0  0  0  0  0  0  0  0
    6.2780  -33.5880  -33.7050 C   0  0  0  0  0  0  0  0  0  0  0  0
    8.9590  -33.4820  -32.8590 C   0  0  0  0  0  0  0  0  0  0  0  0
   12.6110  -33.5570  -33.0120 N   0  0  0  0  0  0  0  0  0  0  0  0
    9.6140  -35.0800  -34.4910 C   0  0  0  0  0  0  0  0  0  0  0  0
    5.3300  -34.9400  -35.1070 C   0  0  0  0  0  0  0  0  0  0  0  0
    5.1550  -33.9630  -34.2660 N   0  0  0  0  0  0  0  0  0  0  0  0
   11.2920  -33.9550  -33.2270 C   0  0  0  0  0  0  0  0  0  0  0  0
    6.7010  -32.7140  -32.7000 C   0  0  0  0  0  0  0  0  0  0  0  0
    7.2850  -34.4750  -34.2490 C   0  0  0  0  0  0  0  0  0  0  0  0
  1  8  4  0
  2 11  2  0
  2 15  1  0
  5 13  2  0
  7 14  4  0
  8  6  2  0
  8  4  4  0
 10  5  1  0
 10  1  1  0
 11 12  1  0
 12  7  2  0
 13  9  1  0
 13  6  1  0
 14  4  4  0
 14  3  1  0
 15  1  4  0
 15  7  4  0
M  END
$$$$

     RDKit          3D

  6  7  0  0  0  0  0  0  0  0999 V2000
    9.3110  -33.7760  -32.5070 C   0  0  0  0  0  0  0  0  0  0  0  0
    8.3890  -34.9290  -33.8150 C   0  0  0  0  0  0  0  0  0  0  0  0
    7.6760  -36.1070  -34.6160 C   0  0  0  0  0  0  0  0  0  0  0  0
    8.3180  -33.1750  -32.5610 C   0  0  0  0  0  0  0  0  0  0  0  0
    7.9480  -33.8830  -33.6100 C   0  0  0  0  0  0  0  0  0  0  0  0
    8.7510  -34.6730  -32.8770 C   0  0  0  0  0  0  0  0  0  0  0  0
  2  3  1  0
  2  5  1  0
  2  6  1  0
  4  1  1  0
  5  6  1  0
  5  4  1  0
  6  1  1  0
M  END
$$$$

     RDKit          3D

 16 18  0  0  0  0  0  0  0  0999 V2000
   10.3880  -35.7440  -33.1760 C   0  0  0  0  0  0  0  0  0  0  0  0
    7.8150  -35.3570  -34.3790 C   0  0  0  0  0  0  0  0  0  0  0  0
    8.9090  -34.0820  -32.6500 C   0  0  0  0  0  0  0  0  0  0  0  0
    5.8900  -34.1270  -34.5010 C   0  0  0  0  0  0  0  0  0  0  0  0
   10.0530  -34.6250  -32.2870 C   0  0  0  0  0  0  0  0  0  0  0  0
    6.8720  -33.5370  -33.6420 C   0  0  0  0  0  0  0  0  0  0  0  0
    6.9150  -36.0180  -35.3160 C   0  0  0  0  0  0  0  0  0  0  0  0
    5.9570  -35.2460  -35.3130 C   0  0  0  0  0  0  0  0  0  0  0  0
    8.8100  -33.0980  -31.9050 C   0  0  0  0  0  0  0  0  0  0  0  0
   10.5530  -34.0220  -31.0830 C   0  0  0  0  0  0  0  0  0  0  0  0
    9.5560  -36.2230  -34.0690 C   0  0  0  0  0  0  0  0  0  0  0  0
    8.6040  -35.2660  -34.1860 C   0  0  0  0  0  0  0  0  0  0  0  0
    9.6300  -33.0200  -30.9150 N   0  0  0  0  0  0  0  0  0  0  0  0
    6.7560  -32.5430  -32.7620 C   0  0  0  0  0  0  0  0  0  0  0  0
    8.1820  -34.3620  -33.5480 C   0  0  0  0  0  0  0  0  0  0  0  0
    7.7610  -32.1900  -31.8570 C   0  0  0  0  0  0  0  0  0  0  0  0
  1  5  4  0
  2 12  1  0
  3  5  4  0
  3  9  1  0
  4  6  1  0
  5 10  1  0
  6 14  2  3
  7  8  1  0
  7  2  1  0
  8  4  2  3
  9 16  1  0
  9 13  1  0
 10 13  2  0
 11  1  4  0
 12 11  4  0
 12 15  4  0
 14 16  1  0
 15  3  4  0
M  END
$$$$

     RDKit          3D

 25 32  0  0  0  0  0  0  0  0999 V2000
   12.7010  -33.2480  -30.7180 N   0  0  0  0  0  0  0  0  0  0  0  0
    7.0400  -32.5950  -32.4940 C   0  0  0  0  0  0  0  0  0  0  0  0
    7.9420  -36.0370  -35.2930 C   0  0  0  0  0  0  0  0  0  0  0  0
    6.4410  -36.1260  -35.9130 C   0  0  0  0  0  0  0  0  0  0  0  0
    4.8450  -34.6090  -36.2470 F   0  0  0  0  0  0  0  0  0  0  0  0
   11.4870  -33.7440  -32.5150 C   0  0  0  0  0  0  0  0  0  0  0  0
   10.5480  -33.1070  -31.5610 C   0  0  0  0  0  0  0  0  0  0  0  0
    9.4540  -33.1240  -31.8400 N   0  0  0  0  0  0  0  0  0  0  0  0
    7.3160  -31.8060  -31.7290 C   0  0  0  0  0  0  0  0  0  0  0  0
    5.7750  -35.0490  -35.8090 C   0  0  0  0  0  0  0  0  0  0  0  0
    5.7540  -34.1960  -34.7910 C   0  0  0  0  0  0  0  0  0  0  0  0
    6.8320  -34.1000  -33.8820 C   0  0  0  0  0  0  0  0  0  0  0  0
   10.8290  -32.3020  -29.6040 O   0  0  0  0  0  0  0  0  0  0  0  0
    5.0210  -31.8710  -31.2910 C   0  0  0  0  0  0  0  0  0  0  0  0
    9.3010  -33.6650  -32.9140 C   0  0  0  0  0  0  0  0  0  0  0  0
   10.3330  -34.2450  -33.4290 N   0  0  0  0  0  0  0  0  0  0  0  0
    8.2290  -32.9870  -32.9880 C   0  0  0  0  0  0  0  0  0  0  0  0
    6.1220  -31.3820  -31.0640 C   0  0  0  0  0  0  0  0  0  0  0  0
   11.3510  -32.8270  -30.4930 C   0  0  0  0  0  0  0  0  0  0  0  0
    5.9790  -33.1240  -32.8190 C   0  0  0  0  0  0  0  0  0  0  0  0
   12.7180  -33.6800  -32.0830 C   0  0  0  0  0  0  0  0  0  0  0  0
    4.9230  -32.7790  -32.1680 C   0  0  0  0  0  0  0  0  0  0  0  0
    3.5350  -31.5460  -30.5760 Cl  0  0  0  0  0  0  0  0  0  0  0  0
    8.3290  -34.1390  -33.6160 C   0  0  0  0  0  0  0  0  0  0  0  0
    7.9950  -35.1400  -34.3830 C   0  0  0  0  0  0  0  0  0  0  0  0
  1 19  1  0
  2  9  4  0
  3 25  1  0
  4 10  1  0
  4  3  1  0
  6 21  1  0
  6  7  2  0
  7 19  1  0
  8  7  1  0
  9 18  4  0
 10  5  1  0
 10 11  1  0
 12 11  1  0
 12 24  1  0
 12 20  1  0
 14 18  4  0
 14 23  1  0
 15 16  1  0
 15  8  1  0
 16  6  1  0
 17 15  1  0
 17  2  1  0
 17  8  1  0
 19 13  2  0
 20  2  4  0
 20 22  4  0
 21  1  2  0
 22 14  4  0
 24 17  1  0
 24 15  1  0
 25 12  1  0
 25 24  1  0
M  END
$$$$

     RDKit          3D

 35 39  0  0  0  0  0  0  0  0999 V2000
    8.3600  -35.4350  -35.6550 C   0  0  0  0  0  0  0  0  0  0  0  0
   10.1590  -34.0560  -30.1120 C   0  0  0  0  0  0  0  0  0  0  0  0
    8.6420  -31.4800  -30.1500 C   0  0  0  0  0  0  0  0  0  0  0  0
    8.2530  -35.8820  -36.9220 C   0  0  0  0  0  0  0  0  0  0  0  0
   10.8200  -35.7010  -31.0350 F   0  0  0  0  0  0  0  0  0  0  0  0
    5.9300  -35.6490  -36.7760 C   0  0  0  0  0  0  0  0  0  0  0  0
    7.2390  -34.9330  -35.0030 C   0  0  0  0  0  0  0  0  0  0  0  0
   12.5260  -33.6940  -29.9690 C   0  0  0  0  0  0  0  0  0  0  0  0
    9.6960  -34.3550  -32.7980 C   0  0  0  0  0  0  0  0  0  0  0  0
   11.0210  -34.0260  -32.3570 C   0  0  0  0  0  0  0  0  0  0  0  0
    6.4420  -31.3950  -31.0020 O   0  0  0  0  0  0  0  0  0  0  0  0
   11.0470  -34.7490  -32.9540 C   0  0  0  0  0  0  0  0  0  0  0  0
    4.6830  -34.8620  -35.2970 O   0  0  0  0  0  0  0  0  0  0  0  0
   12.1730  -35.9160  -33.8100 O   0  0  0  0  0  0  0  0  0  0  0  0
   10.7130  -34.5760  -30.9010 C   0  0  0  0  0  0  0  0  0  0  0  0
   10.1670  -36.0980  -34.2840 C   0  0  0  0  0  0  0  0  0  0  0  0
    2.3090  -35.0690  -36.9940 C   0  0  0  0  0  0  0  0  0  0  0  0
    7.3760  -34.1630  -33.8150 C   0  0  0  0  0  0  0  0  0  0  0  0
    8.4540  -33.8400  -32.9430 C   0  0  0  0  0  0  0  0  0  0  0  0
   12.4770  -33.9250  -30.8300 O   0  0  0  0  0  0  0  0  0  0  0  0
    3.2020  -33.9240  -37.6630 C   0  0  0  0  0  0  0  0  0  0  0  0
    9.6150  -35.2840  -35.1860 O   0  0  0  0  0  0  0  0  0  0  0  0
    6.0860  -35.0680  -35.5050 C   0  0  0  0  0  0  0  0  0  0  0  0
    3.8570  -35.0070  -36.6260 C   0  0  0  0  0  0  0  0  0  0  0  0
   11.2700  -35.6420  -33.7860 C   0  0  0  0  0  0  0  0  0  0  0  0
    5.0760  -31.7560  -30.6890 C   0  0  0  0  0  0  0  0  0  0  0  0
    9.3240  -36.7270  -33.7100 O   0  0  0  0  0  0  0  0  0  0  0  0
    5.8490  -32.6860  -32.6900 C   0  0  0  0  0  0  0  0  0  0  0  0
    8.1830  -32.6260  -32.0130 C   0  0  0  0  0  0  0  0  0  0  0  0
    6.1170  -33.4680  -33.6830 C   0  0  0  0  0  0  0  0  0  0  0  0
    9.0910  -32.1510  -31.2330 O   0  0  0  0  0  0  0  0  0  0  0  0
    7.1160  -35.9170  -37.5740 C   0  0  0  0  0  0  0  0  0  0  0  0
   11.4740  -34.0750  -30.8690 C   0  0  0  0  0  0  0  0  0  0  0  0
    4.6530  -35.9880  -37.1300 O   0  0  0  0  0  0  0  0  0  0  0  0
    6.9440  -32.2480  -31.8830 C   0  0  0  0  0  0  0  0  0  0  0  0
  1 22  1  0
  1  7  4  0
  4  1  4  0
  5 15  1  0
  6 23  4  0
  7 18  1  0
 11 26  1  0
 12  9  2  0
 12 10  1  0
 14 25  2  0
 15 33  1  0
 15  2  1  0
 16 25  1  0
 16 27  2  0
 17 24  1  0
 18 30  2  0
 18 19  1  0
 19  9  2  0
 19 29  1  0
 20  8  1  0
 21 17  1  0
 21 24  1  0
 22 16  1  0
 23 13  1  0
 23  7  4  0
 24 13  1  0
 25 12  1  0
 28 35  1  0
 29 35  2  0
 29 31  1  0
 30 28  1  0
 31  3  1  0
 32  4  4  0
 32  6  4  0
 33 10  1  0
 33 20  1  0
 34  6  1  0
 34 24  1  0
 35 11  1  0
M  END
$$$$

     RDKit          3D

 25 28  0  0  0  0  0  0  0  0999 V2000
    9.9970  -37.1430  -33.8830 C   0  0  0  0  0  0  0  0  0  0  0  0
   11.2410  -34.0750  -32.4240 C   0  0  0  0  0  0  0  0  0  0  0  0
    8.1990  -31.1130  -29.8160 C   0  0  0  0  0  0  0  0  0  0  0  0
    5.5010  -33.0520  -33.6010 C   0  0  0  0  0  0  0  0  0  0  0  0
    6.7900  -32.1390  -31.6270 N   0  0  0  0  0  0  0  0  0  0  0  0
   10.0790  -34.1780  -33.1860 C   0  0  0  0  0  0  0  0  0  0  0  0
    9.7500  -35.9370  -34.7890 C   0  0  0  0  0  0  0  0  0  0  0  0
   11.4210  -33.9420  -30.8650 C   0  0  0  0  0  0  0  0  0  0  0  0
   10.5250  -31.8650  -29.3990 C   0  0  0  0  0  0  0  0  0  0  0  0
   10.0050  -34.6800  -34.3620 O   0  0  0  0  0  0  0  0  0  0  0  0
    8.0500  -32.0350  -30.9000 C   0  0  0  0  0  0  0  0  0  0  0  0
   11.9740  -31.6170  -28.5870 Cl  0  0  0  0  0  0  0  0  0  0  0  0
    6.6190  -33.0180  -32.8530 C   0  0  0  0  0  0  0  0  0  0  0  0
    7.6420  -33.9730  -33.2850 C   0  0  0  0  0  0  0  0  0  0  0  0
    5.5780  -31.4200  -31.2130 C   0  0  0  0  0  0  0  0  0  0  0  0
    7.0350  -35.3920  -35.4760 C   0  0  0  0  0  0  0  0  0  0  0  0
    9.1400  -32.9200  -31.3410 C   0  0  0  0  0  0  0  0  0  0  0  0
    8.9870  -33.7050  -32.5510 N   0  0  0  0  0  0  0  0  0  0  0  0
    4.4050  -32.0390  -30.5520 C   0  0  0  0  0  0  0  0  0  0  0  0
    7.4480  -34.9310  -34.2630 C   0  0  0  0  0  0  0  0  0  0  0  0
   10.3330  -32.8380  -30.5060 C   0  0  0  0  0  0  0  0  0  0  0  0
    9.3970  -31.0170  -29.1210 C   0  0  0  0  0  0  0  0  0  0  0  0
    3.1520  -32.2760  -31.4530 C   0  0  0  0  0  0  0  0  0  0  0  0
    6.1990  -34.9050  -35.0380 C   0  0  0  0  0  0  0  0  0  0  0  0
    5.2990  -33.9280  -34.7680 C   0  0  0  0  0  0  0  0  0  0  0  0
  2  8  1  0
  3 22  4  0
  4 13  1  0
  5 15  1  0
  5 11  1  0
  6 10  1  0
  6 18  1  0
  6  2  1  0
  7 10  1  0
  7  1  1  0
  8 21  1  0
  9 22  4  0
  9 12  1  0
 11  3  4  0
 13  5  1  0
 14 13  2  0
 14 18  1  0
 15 19  1  0
 16 24  1  0
 16 20  1  0
 17 11  4  0
 17 21  4  0
 18 17  1  0
 20 14  1  0
 21  9  4  0
 23 19  1  0
 24 25  1  0
 25  4  2  0
M  END
$$$$

     RDKit          3D

 33 39  0  0  0  0  0  0  0  0999 V2000
    3.9290  -33.1700  -32.3140 C   0  0  0  0  0  0  0  0  0  0  0  0
    9.3230  -35.6670  -34.3450 C   0  0  0  0  0  0  0  0  0  0  0  0
   10.4850  -33.9680  -30.1710 N   0  0  0  0  0  0  0  0  0  0  0  0
    9.1630  -33.0660  -31.9690 C   0  0  0  0  0  0  0  0  0  0  0  0
    7.9410  -32.5440  -32.0360 N   0  0  0  0  0  0  0  0  0  0  0  0
   11.8570  -35.4750  -34.2560 C   0  0  0  0  0  0  0  0  0  0  0  0
   12.1290  -34.1440  -33.8340 C   0  0  0  0  0  0  0  0  0  0  0  0
    6.2860  -34.5990  -34.6870 C   0  0  0  0  0  0  0  0  0  0  0  0
   12.1630  -31.7010  -27.9850 N   0  0  0  0  0  0  0  0  0  0  0  0
   11.2560  -32.0500  -28.7510 C   0  0  0  0  0  0  0  0  0  0  0  0
   12.2010  -32.7240  -28.5910 C   0  0  0  0  0  0  0  0  0  0  0  0
    3.9570  -32.1360  -31.1950 C   0  0  0  0  0  0  0  0  0  0  0  0
   10.6310  -36.0960  -34.4350 C   0  0  0  0  0  0  0  0  0  0  0  0
    5.9480  -32.0230  -33.3070 C   0  0  0  0  0  0  0  0  0  0  0  0
    8.9240  -34.4550  -33.7470 C   0  0  0  0  0  0  0  0  0  0  0  0
    7.4570  -34.0430  -33.8720 C   0  0  0  0  0  0  0  0  0  0  0  0
   10.8280  -33.2450  -29.1400 C   0  0  0  0  0  0  0  0  0  0  0  0
    5.3600  -31.5220  -30.9990 C   0  0  0  0  0  0  0  0  0  0  0  0
   10.6180  -31.0790  -28.9560 O   0  0  0  0  0  0  0  0  0  0  0  0
    5.4700  -36.0980  -36.3230 C   0  0  0  0  0  0  0  0  0  0  0  0
    5.8020  -30.8600  -32.3850 C   0  0  0  0  0  0  0  0  0  0  0  0
    3.0310  -36.4200  -36.5170 C   0  0  0  0  0  0  0  0  0  0  0  0
    9.6840  -33.0330  -30.7440 N   0  0  0  0  0  0  0  0  0  0  0  0
    4.1480  -35.4060  -36.3170 C   0  0  0  0  0  0  0  0  0  0  0  0
   11.1830  -33.3600  -33.3620 C   0  0  0  0  0  0  0  0  0  0  0  0
    6.4870  -35.7640  -35.4470 C   0  0  0  0  0  0  0  0  0  0  0  0
    3.8560  -34.5050  -35.1640 C   0  0  0  0  0  0  0  0  0  0  0  0
    4.6940  -32.8390  -33.6250 C   0  0  0  0  0  0  0  0  0  0  0  0
    4.2480  -34.4610  -37.5580 C   0  0  0  0  0  0  0  0  0  0  0  0
    9.8140  -33.6180  -33.0830 C   0  0  0  0  0  0  0  0  0  0  0  0
    5.0800  -34.0190  -34.4520 N   0  0  0  0  0  0  0  0  0  0  0  0
    7.1590  -32.8280  -33.0220 C   0  0  0  0  0  0  0  0  0  0  0  0
   13.3010  -33.4560  -28.7620 O   0  0  0  0  0  0  0  0  0  0  0  0
  1 12  1  0
  4 23  1  0
  5  4  2  0
  6  7  2  0
  7 25  1  0
  8 31  1  0
  8 16  2  0
 10 19  1  0
 10 11  1  0
 10  9  1  0
 11 33  1  0
 11  9  1  0
 12 18  1  0
 13  2  2  0
 13  6  1  0
 14 32  1  0
 14 21  1  0
 15  2  1  0
 15 30  1  0
 16 15  1  0
 17  3  1  0
 17 10  1  0
 17 11  1  0
 20 24  1  0
 20 26  2  0
 21 18  1  0
 22 24  1  0
 23  3  1  0
 24 27  1  0
 25 30  2  0
 26  8  1  0
 27 31  1  0
 28 14  1  0
 28  1  1  0
 29 24  1  0
 30  4  1  0
 31 28  1  0
 32 16  1  0
 32  5  1  0
M  END
$$$$

     RDKit          3D

 37 45  0  0  0  0  0  0  0  0999 V2000
    4.1510  -32.4250  -29.9760 C   0  0  0  0  0  0  0  0  0  0  0  0
    6.2960  -34.9560  -35.0760 C   0  0  0  0  0  0  0  0  0  0  0  0
    8.0950  -36.4280  -34.7540 N   0  0  0  0  0  0  0  0  0  0  0  0
    8.7250  -31.4010  -29.9010 C   0  0  0  0  0  0  0  0  0  0  0  0
    4.7140  -33.9860  -33.8870 C   0  0  0  0  0  0  0  0  0  0  0  0
    6.4750  -32.5830  -32.9570 C   0  0  0  0  0  0  0  0  0  0  0  0
    5.6250  -33.7220  -34.9720 C   0  0  0  0  0  0  0  0  0  0  0  0
    8.0690  -34.3740  -33.7690 C   0  0  0  0  0  0  0  0  0  0  0  0
   12.8620  -33.3670  -30.4760 C   0  0  0  0  0  0  0  0  0  0  0  0
    5.9170  -34.5770  -33.6580 O   0  0  0  0  0  0  0  0  0  0  0  0
    5.3250  -32.1870  -30.6560 C   0  0  0  0  0  0  0  0  0  0  0  0
    7.3540  -32.1450  -32.4640 C   0  0  0  0  0  0  0  0  0  0  0  0
   12.1740  -33.7090  -33.1260 C   0  0  0  0  0  0  0  0  0  0  0  0
    2.0200  -32.9640  -32.9560 F   0  0  0  0  0  0  0  0  0  0  0  0
   13.5550  -33.7950  -32.7030 C   0  0  0  0  0  0  0  0  0  0  0  0
    4.3440  -33.1560  -32.6340 C   0  0  0  0  0  0  0  0  0  0  0  0
    8.3150  -31.3980  -32.9800 O   0  0  0  0  0  0  0  0  0  0  0  0
    8.0630  -30.9870  -32.8420 O   0  0  0  0  0  0  0  0  0  0  0  0
   11.1410  -33.6300  -32.2710 C   0  0  0  0  0  0  0  0  0  0  0  0
    3.0770  -32.8070  -32.1260 C   0  0  0  0  0  0  0  0  0  0  0  0
    3.5250  -34.2320  -34.4110 O   0  0  0  0  0  0  0  0  0  0  0  0
    9.7250  -33.6050  -32.5050 C   0  0  0  0  0  0  0  0  0  0  0  0
    6.7280  -32.7850  -34.3230 C   0  0  0  0  0  0  0  0  0  0  0  0
   11.4500  -33.6250  -30.8330 C   0  0  0  0  0  0  0  0  0  0  0  0
   10.6090  -33.7450  -29.9680 O   0  0  0  0  0  0  0  0  0  0  0  0
    7.7170  -35.1540  -34.9500 C   0  0  0  0  0  0  0  0  0  0  0  0
    6.7090  -36.3020  -35.2590 C   0  0  0  0  0  0  0  0  0  0  0  0
    9.3560  -34.0310  -33.8010 O   0  0  0  0  0  0  0  0  0  0  0  0
    7.8970  -32.1670  -30.9820 C   0  0  0  0  0  0  0  0  0  0  0  0
    2.9320  -32.3820  -30.8100 C   0  0  0  0  0  0  0  0  0  0  0  0
   13.8880  -33.4780  -31.4230 C   0  0  0  0  0  0  0  0  0  0  0  0
   13.0810  -32.9480  -29.2230 O   0  0  0  0  0  0  0  0  0  0  0  0
    7.1930  -33.6560  -33.3870 C   0  0  0  0  0  0  0  0  0  0  0  0
    5.6120  -36.0010  -35.7720 C   0  0  0  0  0  0  0  0  0  0  0  0
    9.3170  -36.6090  -35.2270 O   0  0  0  0  0  0  0  0  0  0  0  0
    5.4440  -32.6130  -32.0430 C   0  0  0  0  0  0  0  0  0  0  0  0
    8.8830  -33.2230  -31.4330 O   0  0  0  0  0  0  0  0  0  0  0  0
  2 34  1  0
  2  7  1  0
  2 26  1  0
  5 21  1  0
  5 10  1  0
  5 16  1  0
  6 12  1  0
  6 36  1  0
  7 23  1  0
  7  5  1  0
  7 10  1  0
  8 28  1  0
  8 33  1  0
  9 32  1  0
 11  1  1  0
 13 15  1  0
 13 19  2  0
 14 20  1  0
 15 31  1  0
 16 20  1  0
 16 36  1  0
 17 18  1  0
 17 12  1  0
 19 24  1  0
 20 30  2  0
 22 28  1  0
 22 19  1  0
 22 37  1  0
 23 33  1  0
 23  6  1  0
 24  9  1  0
 24 25  2  0
 26  3  1  0
 26  8  1  0
 27  2  1  0
 27 26  1  0
 27  3  1  0
 29  4  1  0
 30  1  1  0
 31  9  2  0
 33  6  1  0
 34 27  1  0
 35  3  1  0
 36 11  2  0
 37 29  1  0
M  END
$$$$

     RDKit          3D

 29 32  0  0  0  0  0  0  0  0999 V2000
    2.7420  -33.8740  -36.0300 C   0  0  0  0  0  0  0  0  0  0  0  0
    3.8250  -34.7050  -36.6220 C   0  0  0  0  0  0  0  0  0  0  0  0
    6.6600  -33.9700  -33.6200 C   0  0  0  0  0  0  0  0  0  0  0  0
    3.4500  -35.8950  -37.1770 O   0  0  0  0  0  0  0  0  0  0  0  0
    9.2690  -31.9920  -31.2950 N   0  0  0  0  0  0  0  0  0  0  0  0
    6.9030  -31.4270  -31.7360 N   0  0  0  0  0  0  0  0  0  0  0  0
   10.3160  -31.7860  -29.3260 O   0  0  0  0  0  0  0  0  0  0  0  0
   10.2390  -32.3410  -30.3890 C   0  0  0  0  0  0  0  0  0  0  0  0
    9.3580  -35.4190  -34.0810 C   0  0  0  0  0  0  0  0  0  0  0  0
    5.3680  -33.3660  -33.5130 C   0  0  0  0  0  0  0  0  0  0  0  0
   10.5990  -35.5730  -34.7540 C   0  0  0  0  0  0  0  0  0  0  0  0
    1.7230  -33.3560  -36.3930 C   0  0  0  0  0  0  0  0  0  0  0  0
    9.3820  -34.8410  -32.8240 C   0  0  0  0  0  0  0  0  0  0  0  0
    8.1580  -35.7630  -34.6140 O   0  0  0  0  0  0  0  0  0  0  0  0
    4.4860  -33.8320  -34.5750 C   0  0  0  0  0  0  0  0  0  0  0  0
   11.7770  -35.0090  -34.1910 C   0  0  0  0  0  0  0  0  0  0  0  0
   12.1800  -32.7280  -31.3570 O   0  0  0  0  0  0  0  0  0  0  0  0
   10.4370  -33.9410  -32.2440 C   0  0  0  0  0  0  0  0  0  0  0  0
    5.5890  -31.7750  -31.3140 C   0  0  0  0  0  0  0  0  0  0  0  0
    3.5330  -32.9350  -31.8700 C   0  0  0  0  0  0  0  0  0  0  0  0
    4.9070  -32.4710  -32.3680 C   0  0  0  0  0  0  0  0  0  0  0  0
   11.0640  -33.3270  -30.8310 C   0  0  0  0  0  0  0  0  0  0  0  0
    6.0550  -35.2780  -35.6020 C   0  0  0  0  0  0  0  0  0  0  0  0
    7.6000  -32.3850  -29.7670 O   0  0  0  0  0  0  0  0  0  0  0  0
    4.7610  -34.7200  -35.5040 C   0  0  0  0  0  0  0  0  0  0  0  0
   11.7350  -34.2350  -33.0490 C   0  0  0  0  0  0  0  0  0  0  0  0
    7.9380  -31.9730  -30.9240 C   0  0  0  0  0  0  0  0  0  0  0  0
   12.8630  -33.5400  -32.2700 C   0  0  0  0  0  0  0  0  0  0  0  0
    6.9590  -34.9320  -34.6250 C   0  0  0  0  0  0  0  0  0  0  0  0
  2  4  1  0
  2  1  1  0
  2 25  1  0
  3 10  4  0
  5 27  1  0
  5  8  1  0
  6 19  1  0
  6 27  1  0
  8  7  2  0
  9 13  4  0
 10 21  1  0
 11 16  4  0
 11  9  4  0
 12  1  2  0
 13 18  4  0
 14  9  1  0
 15 10  4  0
 16 26  4  0
 17 22  1  0
 21 20  1  0
 21 19  1  0
 22 18  1  0
 22  8  1  0
 23 25  4  0
 23 29  4  0
 25 15  4  0
 26 28  1  0
 26 18  4  0
 27 24  2  0
 28 17  1  0
 29 14  1  0
 29  3  4  0
M  END
$$$$

     RDKit          3D

 10 11  0  0  0  0  0  0  0  0999 V2000
    7.2260  -34.7940  -34.0700 C   0  0  0  0  0  0  0  0  0  0  0  0
    8.7100  -33.6100  -32.6150 C   0  0  0  0  0  0  0  0  0  0  0  0
    6.4310  -33.0820  -33.4060 N   0  0  0  0  0  0  0  0  0  0  0  0
    7.9050  -35.8860  -34.4600 C   0  0  0  0  0  0  0  0  0  0  0  0
    9.5910  -34.7520  -32.9060 C   0  0  0  0  0  0  0  0  0  0  0  0
    9.8500  -35.8090  -33.3660 C   0  0  0  0  0  0  0  0  0  0  0  0
    6.0230  -34.5530  -34.5880 N   0  0  0  0  0  0  0  0  0  0  0  0
    7.5730  -33.6750  -33.2170 C   0  0  0  0  0  0  0  0  0  0  0  0
    9.0580  -36.5710  -34.1250 C   0  0  0  0  0  0  0  0  0  0  0  0
    5.5700  -33.5800  -34.1830 C   0  0  0  0  0  0  0  0  0  0  0  0
  1  8  1  0
  3  8  1  0
  4  9  1  0
  4  1  1  0
  5  2  1  0
  6  5  2  0
  7 10  1  0
  7  1  2  0
  8  2  1  0
  9  6  1  0
 10  3  2  0
M  END
$$$$

     RDKit          3D

 26 28  0  0  0  0  0  0  0  0999 V2000
   10.1960  -35.0590  -33.7440 C   0  0  0  0  0  0  0  0  0  0  0  0
   11.1630  -34.5590  -30.5120 C   0  0  0  0  0  0  0  0  0  0  0  0
    9.3420  -34.5080  -34.2330 N   0  0  0  0  0  0  0  0  0  0  0  0
    2.1980  -31.8830  -31.5340 C   0  0  0  0  0  0  0  0  0  0  0  0
    2.3240  -31.2430  -30.3590 C   0  0  0  0  0  0  0  0  0  0  0  0
    7.0840  -33.0700  -33.0940 C   0  0  0  0  0  0  0  0  0  0  0  0
   10.6040  -35.0160  -31.5990 C   0  0  0  0  0  0  0  0  0  0  0  0
    4.8400  -33.3150  -33.4810 C   0  0  0  0  0  0  0  0  0  0  0  0
    5.0720  -34.3360  -34.3840 C   0  0  0  0  0  0  0  0  0  0  0  0
   10.9170  -34.5930  -32.7540 C   0  0  0  0  0  0  0  0  0  0  0  0
   12.0420  -33.4790  -30.6500 C   0  0  0  0  0  0  0  0  0  0  0  0
    3.6730  -31.0820  -30.1700 C   0  0  0  0  0  0  0  0  0  0  0  0
    3.5690  -32.9030  -33.0560 C   0  0  0  0  0  0  0  0  0  0  0  0
    6.3630  -34.7280  -34.6780 C   0  0  0  0  0  0  0  0  0  0  0  0
   11.6650  -33.6650  -32.9020 C   0  0  0  0  0  0  0  0  0  0  0  0
    8.8620  -37.6410  -33.5470 C   0  0  0  0  0  0  0  0  0  0  0  0
    2.5660  -32.9960  -33.8530 O   0  0  0  0  0  0  0  0  0  0  0  0
    4.1590  -31.5500  -31.2090 C   0  0  0  0  0  0  0  0  0  0  0  0
   12.2550  -33.0820  -31.7700 C   0  0  0  0  0  0  0  0  0  0  0  0
    8.6190  -34.2170  -33.7240 N   0  0  0  0  0  0  0  0  0  0  0  0
    3.5010  -32.2110  -31.9870 N   0  0  0  0  0  0  0  0  0  0  0  0
   10.7250  -36.4130  -34.1770 C   0  0  0  0  0  0  0  0  0  0  0  0
   11.8970  -36.1400  -34.5280 O   0  0  0  0  0  0  0  0  0  0  0  0
   10.2670  -37.6470  -34.0250 C   0  0  0  0  0  0  0  0  0  0  0  0
    7.3630  -34.0720  -33.9220 C   0  0  0  0  0  0  0  0  0  0  0  0
    5.9880  -32.8610  -32.9280 N   0  0  0  0  0  0  0  0  0  0  0  0
  1  3  1  0
  1 10  1  0
  3 20  1  0
  4  5  1  0
  5 12  1  0
  6 26  4  0
  7  2  4  0
  8 13  1  0
  8 26  4  0
  9  8  4  0
 10  7  4  0
 11  2  4  0
 13 21  1  0
 14  9  4  0
 14 25  4  0
 15 10  4  0
 15 19  4  0
 17 13  2  0
 18 12  1  0
 19 11  4  0
 21  4  1  0
 21 18  1  0
 22 24  1  0
 22  1  1  0
 23 22  2  0
 24 16  1  0
 25 20  1  0
 25  6  4  0
M  END
$$$$

     RDKit          3D

 31 35  0  0  0  0  0  0  0  0999 V2000
   11.5350  -35.1990  -33.2950 C   0  0  0  0  0  0  0  0  0  0  0  0
    9.2140  -34.5310  -32.7640 C   0  0  0  0  0  0  0  0  0  0  0  0
   10.6470  -34.4030  -32.2890 C   0  0  0  0  0  0  0  0  0  0  0  0
   12.5530  -33.0620  -32.7000 C   0  0  0  0  0  0  0  0  0  0  0  0
    3.0460  -32.4990  -33.6970 C   0  0  0  0  0  0  0  0  0  0  0  0
    3.4610  -34.6720  -37.8880 C   0  0  0  0  0  0  0  0  0  0  0  0
    2.5440  -33.9020  -38.9110 C   0  0  0  0  0  0  0  0  0  0  0  0
   10.0700  -36.9610  -31.7780 C   0  0  0  0  0  0  0  0  0  0  0  0
    4.3300  -32.9310  -33.0020 C   0  0  0  0  0  0  0  0  0  0  0  0
   12.5410  -34.1360  -33.7620 C   0  0  0  0  0  0  0  0  0  0  0  0
    3.8220  -34.1070  -35.5430 N   0  0  0  0  0  0  0  0  0  0  0  0
    2.7680  -33.1230  -35.0550 C   0  0  0  0  0  0  0  0  0  0  0  0
    6.7180  -33.3610  -33.4550 C   0  0  0  0  0  0  0  0  0  0  0  0
    7.6150  -31.8290  -32.4960 O   0  0  0  0  0  0  0  0  0  0  0  0
    9.1440  -36.1060  -32.5830 C   0  0  0  0  0  0  0  0  0  0  0  0
    6.0840  -35.1390  -35.4020 C   0  0  0  0  0  0  0  0  0  0  0  0
    5.4120  -33.4490  -33.8680 C   0  0  0  0  0  0  0  0  0  0  0  0
   11.6290  -32.4210  -29.5060 F   0  0  0  0  0  0  0  0  0  0  0  0
    3.2750  -34.9780  -36.5780 C   0  0  0  0  0  0  0  0  0  0  0  0
   12.8330  -33.8290  -29.7360 F   0  0  0  0  0  0  0  0  0  0  0  0
    7.3450  -35.1790  -34.7450 C   0  0  0  0  0  0  0  0  0  0  0  0
    8.7490  -32.9700  -32.2360 N   0  0  0  0  0  0  0  0  0  0  0  0
    5.1340  -34.2260  -34.8920 C   0  0  0  0  0  0  0  0  0  0  0  0
    4.8100  -34.4350  -38.3200 O   0  0  0  0  0  0  0  0  0  0  0  0
   10.6840  -34.5090  -29.6360 F   0  0  0  0  0  0  0  0  0  0  0  0
   11.4880  -33.4120  -31.6490 C   0  0  0  0  0  0  0  0  0  0  0  0
   10.7340  -35.7980  -34.3460 C   0  0  0  0  0  0  0  0  0  0  0  0
    9.5210  -36.4250  -33.9490 O   0  0  0  0  0  0  0  0  0  0  0  0
    7.8620  -32.6730  -33.0090 C   0  0  0  0  0  0  0  0  0  0  0  0
   11.6470  -33.6310  -30.0170 C   0  0  0  0  0  0  0  0  0  0  0  0
    7.6130  -34.2830  -33.7400 C   0  0  0  0  0  0  0  0  0  0  0  0
  1 27  1  0
  1  3  1  0
  2 31  1  0
  2 15  1  0
  2  3  1  0
  3 26  1  0
  4 26  1  0
  5  9  2  0
  6 19  1  0
  7  6  1  0
 10  1  1  0
 10  4  1  0
 11 12  1  0
 11 23  1  0
 12  5  1  0
 13 29  1  0
 15  8  1  0
 16 23  1  0
 16 21  2  0
 17 13  1  0
 17  9  1  0
 19 11  1  0
 21 31  1  0
 23 17  2  0
 24  6  1  0
 26 30  1  0
 27 28  1  0
 28 15  1  0
 29 14  1  0
 29 22  1  0
 30 20  1  0
 30 25  1  0
 30 18  1  0
 31 13  1  0
 31 29  1  0
M  END
$$$$

     RDKit          3D

 18 20  0  0  0  0  0  0  0  0999 V2000
    7.0590  -33.4180  -33.2710 C   0  0  0  0  0  0  0  0  0  0  0  0
    3.0630  -33.8590  -39.1820 C   0  0  0  0  0  0  0  0  0  0  0  0
    8.0140  -36.2530  -35.5380 C   0  0  0  0  0  0  0  0  0  0  0  0
    5.6700  -34.6010  -37.4980 C   0  0  0  0  0  0  0  0  0  0  0  0
    6.0070  -33.8680  -33.9460 C   0  0  0  0  0  0  0  0  0  0  0  0
    4.3490  -34.3660  -39.4290 O   0  0  0  0  0  0  0  0  0  0  0  0
   10.6040  -34.5750  -34.0440 C   0  0  0  0  0  0  0  0  0  0  0  0
    5.2890  -33.6690  -38.5250 C   0  0  0  0  0  0  0  0  0  0  0  0
    7.3000  -32.5800  -32.3360 O   0  0  0  0  0  0  0  0  0  0  0  0
    3.7640  -34.0140  -36.5080 C   0  0  0  0  0  0  0  0  0  0  0  0
    2.7850  -34.2880  -37.5830 C   0  0  0  0  0  0  0  0  0  0  0  0
    9.1950  -36.4850  -33.2870 C   0  0  0  0  0  0  0  0  0  0  0  0
    5.2310  -34.6640  -36.3530 C   0  0  0  0  0  0  0  0  0  0  0  0
    8.9120  -37.1440  -34.4890 C   0  0  0  0  0  0  0  0  0  0  0  0
    9.3810  -35.0230  -33.5320 N   0  0  0  0  0  0  0  0  0  0  0  0
    7.3200  -35.1430  -34.9210 C   0  0  0  0  0  0  0  0  0  0  0  0
    6.1490  -34.7390  -35.1220 C   0  0  0  0  0  0  0  0  0  0  0  0
    8.0520  -34.4490  -33.7710 C   0  0  0  0  0  0  0  0  0  0  0  0
  1  9  2  0
  2 11  1  0
  3 16  1  0
  3 14  1  0
  5  1  1  0
  6  2  1  0
  6  8  1  0
  7 15  1  0
  8  4  1  0
 10 13  1  0
 11 10  1  0
 13  4  1  0
 13 17  1  0
 14 12  1  0
 15 12  1  0
 16 18  2  0
 17 16  1  0
 17  5  1  0
 18 15  1  0
 18  1  1  0
M  END
$$$$

     RDKit          3D

 36 43  0  0  0  0  0  0  0  0999 V2000
    9.3730  -34.4510  -32.9030 C   0  0  0  0  0  0  0  0  0  0  0  0
   11.7030  -33.5320  -31.7210 C   0  0  0  0  0  0  0  0  0  0  0  0
    6.9980  -33.6770  -32.6830 C   0  0  0  0  0  0  0  0  0  0  0  0
    8.6260  -34.0140  -32.1690 C   0  0  0  0  0  0  0  0  0  0  0  0
    9.1920  -32.4060  -30.6020 C   0  0  0  0  0  0  0  0  0  0  0  0
   12.3070  -34.6320  -34.2220 C   0  0  0  0  0  0  0  0  0  0  0  0
    9.0940  -32.5280  -31.5600 C   0  0  0  0  0  0  0  0  0  0  0  0
    8.1400  -32.3890  -30.4810 C   0  0  0  0  0  0  0  0  0  0  0  0
    4.7400  -31.9970  -30.6120 N   0  0  0  0  0  0  0  0  0  0  0  0
    5.2780  -34.3870  -34.6780 C   0  0  0  0  0  0  0  0  0  0  0  0
    6.6940  -32.0000  -32.2970 N   0  0  0  0  0  0  0  0  0  0  0  0
    9.7780  -33.2490  -31.4430 C   0  0  0  0  0  0  0  0  0  0  0  0
    6.2690  -34.6350  -35.5570 C   0  0  0  0  0  0  0  0  0  0  0  0
    9.9420  -35.5180  -35.0270 C   0  0  0  0  0  0  0  0  0  0  0  0
    4.3850  -34.9860  -37.2110 C   0  0  0  0  0  0  0  0  0  0  0  0
    6.9990  -31.8300  -30.8950 C   0  0  0  0  0  0  0  0  0  0  0  0
    8.9130  -35.4410  -32.8410 O   0  0  0  0  0  0  0  0  0  0  0  0
    9.5760  -33.6890  -32.3450 C   0  0  0  0  0  0  0  0  0  0  0  0
    3.5290  -34.5570  -36.1940 O   0  0  0  0  0  0  0  0  0  0  0  0
    8.6350  -35.3890  -35.5440 C   0  0  0  0  0  0  0  0  0  0  0  0
   10.5990  -34.2250  -30.8150 C   0  0  0  0  0  0  0  0  0  0  0  0
    9.6630  -33.0010  -31.1380 N   0  0  0  0  0  0  0  0  0  0  0  0
    7.7740  -34.6500  -35.0430 C   0  0  0  0  0  0  0  0  0  0  0  0
    9.5190  -35.4300  -33.7740 C   0  0  0  0  0  0  0  0  0  0  0  0
    9.3440  -35.6540  -35.2510 C   0  0  0  0  0  0  0  0  0  0  0  0
   12.4720  -33.7920  -31.2370 C   0  0  0  0  0  0  0  0  0  0  0  0
    5.7190  -34.9840  -36.8650 C   0  0  0  0  0  0  0  0  0  0  0  0
   10.9190  -32.5070  -28.9530 C   0  0  0  0  0  0  0  0  0  0  0  0
    7.7760  -34.0900  -33.6890 C   0  0  0  0  0  0  0  0  0  0  0  0
    4.0400  -33.9950  -35.1500 C   0  0  0  0  0  0  0  0  0  0  0  0
   10.7540  -34.9220  -34.0220 C   0  0  0  0  0  0  0  0  0  0  0  0
    5.4860  -31.5740  -31.6020 C   0  0  0  0  0  0  0  0  0  0  0  0
   12.6610  -33.7340  -30.0870 C   0  0  0  0  0  0  0  0  0  0  0  0
   10.7120  -33.0170  -30.2590 C   0  0  0  0  0  0  0  0  0  0  0  0
   12.7380  -33.7040  -33.2480 C   0  0  0  0  0  0  0  0  0  0  0  0
   11.8030  -35.7690  -33.7180 O   0  0  0  0  0  0  0  0  0  0  0  0
  1 17  1  0
  1 18  1  0
  1  4  1  0
  2 26  1  0
  5  7  1  0
  5  8  1  0
  6 31  1  0
  6 36  1  0
  6 35  1  0
 11  3  1  0
 11 32  1  0
 11 16  1  0
 12 22  1  0
 12 21  1  0
 13 10  1  0
 15 27  1  0
 15 19  1  0
 16  8  1  0
 18  4  1  0
 18 12  1  0
 19 30  1  0
 20 25  1  0
 20 23  1  0
 21 34  1  0
 22  7  1  0
 22  5  1  0
 22 34  1  0
 23 13  1  0
 23 29  1  0
 24 14  1  0
 24  1  1  0
 24 17  1  0
 25 14  1  0
 26 33  2  0
 27 13  2  0
 29  3  1  0
 30 10  1  0
 31 24  1  0
 31 36  1  0
 32 16  1  0
 32  9  1  0
 34 28  1  0
 35  2  1  0
M  END
$$$$

     RDKit          3D

 15 17  0  0  0  0  0  0  0  0999 V2000
    5.1390  -32.0290  -31.7340 C   0  0  0  0  0  0  0  0  0  0  0  0
    7.6760  -33.4860  -33.1150 C   0  0  0  0  0  0  0  0  0  0  0  0
    8.0960  -32.7460  -32.1010 C   0  0  0  0  0  0  0  0  0  0  0  0
    5.9430  -34.8290  -35.2420 O   0  0  0  0  0  0  0  0  0  0  0  0
    6.4400  -33.6070  -33.7010 C   0  0  0  0  0  0  0  0  0  0  0  0
   10.0470  -34.1850  -32.0840 C   0  0  0  0  0  0  0  0  0  0  0  0
    8.4750  -34.3230  -33.6290 C   0  0  0  0  0  0  0  0  0  0  0  0
    9.2730  -33.1230  -31.4280 C   0  0  0  0  0  0  0  0  0  0  0  0
    6.7780  -34.4880  -34.4320 C   0  0  0  0  0  0  0  0  0  0  0  0
    4.0510  -32.3360  -32.4010 C   0  0  0  0  0  0  0  0  0  0  0  0
    7.8950  -34.8490  -34.5460 N   0  0  0  0  0  0  0  0  0  0  0  0
    4.1480  -32.9470  -33.7440 C   0  0  0  0  0  0  0  0  0  0  0  0
    5.5430  -32.3010  -32.4790 C   0  0  0  0  0  0  0  0  0  0  0  0
    9.7990  -34.6080  -33.2830 C   0  0  0  0  0  0  0  0  0  0  0  0
    5.3670  -32.9730  -33.2620 C   0  0  0  0  0  0  0  0  0  0  0  0
  2  3  1  0
  3  8  1  0
  4  9  2  0
  5 15  1  0
  5  2  2  0
  6  8  1  0
  7 14  1  0
  7  2  1  0
  9  5  1  0
 10  1  1  0
 11  9  1  0
 11  7  2  0
 12 15  1  0
 12 10  1  0
 13  1  1  0
 14  6  1  0
 15 13  1  0
M  END
$$$$

     RDKit          3D

 35 37  0  0  0  0  0  0  0  0999 V2000
   13.4910  -33.2260  -32.7760 O   0  0  0  0  0  0  0  0  0  0  0  0
   11.4000  -33.8010  -33.2220 N   0  0  0  0  0  0  0  0  0  0  0  0
    4.4260  -32.3250  -33.2240 C   0  0  0  0  0  0  0  0  0  0  0  0
    8.0500  -32.4590  -30.8920 C   0  0  0  0  0  0  0  0  0  0  0  0
    3.1420  -32.5490  -33.9620 C   0  0  0  0  0  0  0  0  0  0  0  0
   12.3420  -33.1380  -32.5460 C   0  0  0  0  0  0  0  0  0  0  0  0
    1.0240  -31.4070  -31.1660 N   0  0  0  0  0  0  0  0  0  0  0  0
   11.1010  -34.9070  -33.6550 C   0  0  0  0  0  0  0  0  0  0  0  0
    5.6980  -34.6080  -33.9480 C   0  0  0  0  0  0  0  0  0  0  0  0
   10.3990  -35.1580  -30.2030 C   0  0  0  0  0  0  0  0  0  0  0  0
    3.1720  -31.4720  -31.1520 O   0  0  0  0  0  0  0  0  0  0  0  0
    2.1140  -31.6280  -33.3290 C   0  0  0  0  0  0  0  0  0  0  0  0
    9.1100  -33.3750  -32.7620 C   0  0  0  0  0  0  0  0  0  0  0  0
    9.9010  -37.4090  -33.7480 C   0  0  0  0  0  0  0  0  0  0  0  0
    4.7510  -34.2730  -36.2200 N   0  0  0  0  0  0  0  0  0  0  0  0
   10.2110  -33.8330  -30.6210 N   0  0  0  0  0  0  0  0  0  0  0  0
    6.9300  -32.3130  -31.6050 C   0  0  0  0  0  0  0  0  0  0  0  0
    6.6380  -35.4450  -36.0640 C   0  0  0  0  0  0  0  0  0  0  0  0
   -0.3310  -31.0830  -31.6520 C   0  0  0  0  0  0  0  0  0  0  0  0
    2.1690  -31.5210  -31.8680 C   0  0  0  0  0  0  0  0  0  0  0  0
    5.6520  -34.8240  -35.3530 C   0  0  0  0  0  0  0  0  0  0  0  0
   10.1890  -35.2490  -34.6860 C   0  0  0  0  0  0  0  0  0  0  0  0
   11.5910  -35.8990  -32.9610 C   0  0  0  0  0  0  0  0  0  0  0  0
   11.9400  -32.3680  -31.6080 O   0  0  0  0  0  0  0  0  0  0  0  0
   10.9240  -37.1890  -32.8880 C   0  0  0  0  0  0  0  0  0  0  0  0
   11.3270  -32.1780  -29.1550 C   0  0  0  0  0  0  0  0  0  0  0  0
   11.4940  -33.0450  -30.4010 C   0  0  0  0  0  0  0  0  0  0  0  0
    6.2970  -35.3980  -37.2950 C   0  0  0  0  0  0  0  0  0  0  0  0
    6.7750  -32.8960  -32.8230 C   0  0  0  0  0  0  0  0  0  0  0  0
    5.5670  -33.2270  -33.5150 C   0  0  0  0  0  0  0  0  0  0  0  0
    7.8890  -33.4760  -33.3970 C   0  0  0  0  0  0  0  0  0  0  0  0
    9.6860  -36.4890  -34.6560 C   0  0  0  0  0  0  0  0  0  0  0  0
    5.1520  -34.7090  -37.3790 O   0  0  0  0  0  0  0  0  0  0  0  0
   12.7390  -33.9160  -30.0940 C   0  0  0  0  0  0  0  0  0  0  0  0
    9.1310  -33.2710  -31.3240 C   0  0  0  0  0  0  0  0  0  0  0  0
  1  6  2  0
  2  6  1  0
  5 12  1  0
  5  3  1  0
  6 24  1  0
  8  2  1  0
  8 23  4  0
 12 20  1  0
 13 35  4  0
 14 25  4  0
 15 21  4  0
 16 27  1  0
 16 10  1  0
 17  4  4  0
 18 21  4  0
 19  7  1  0
 20  7  1  0
 20 11  2  0
 21  9  1  0
 22 32  4  0
 22  8  4  0
 23 25  4  0
 24 27  1  0
 27 34  1  0
 27 26  1  0
 28 18  4  0
 29 17  4  0
 30  9  1  0
 30  3  1  0
 30 29  1  0
 31 29  4  0
 31 13  4  0
 32 14  4  0
 33 28  4  0
 33 15  4  0
 35  4  4  0
 35 16  1  0
M  END
$$$$

     RDKit          3D

  5  5  0  0  0  0  0  0  0  0999 V2000
   10.4070  -33.4750  -33.0450 C   0  0  0  0  0  0  0  0  0  0  0  0
    8.8430  -34.4800  -34.1810 O   0  0  0  0  0  0  0  0  0  0  0  0
    9.0880  -33.6500  -32.3140 O   0  0  0  0  0  0  0  0  0  0  0  0
   10.2440  -34.3940  -34.2370 C   0  0  0  0  0  0  0  0  0  0  0  0
    8.5560  -34.7630  -33.4800 C   0  0  0  0  0  0  0  0  0  0  0  0
  1  3  1  0
  2  5  1  0
  4  2  1  0
  4  1  1  0
  5  3  1  0
M  END
$$$$

     RDKit          3D

 22 25  0  0  0  0  0  0  0  0999 V2000
    9.5580  -35.4280  -34.6760 C   0  0  0  0  0  0  0  0  0  0  0  0
    7.0560  -34.2470  -33.8440 C   0  0  0  0  0  0  0  0  0  0  0  0
    5.5980  -33.3440  -33.9600 O   0  0  0  0  0  0  0  0  0  0  0  0
   10.6720  -34.5280  -33.4600 C   0  0  0  0  0  0  0  0  0  0  0  0
    4.7730  -33.6550  -34.9110 C   0  0  0  0  0  0  0  0  0  0  0  0
   11.2730  -33.4030  -31.6600 C   0  0  0  0  0  0  0  0  0  0  0  0
    4.7480  -34.1830  -36.2950 C   0  0  0  0  0  0  0  0  0  0  0  0
   11.8620  -34.0770  -33.6230 O   0  0  0  0  0  0  0  0  0  0  0  0
   10.5010  -34.4390  -31.9540 C   0  0  0  0  0  0  0  0  0  0  0  0
    3.6060  -34.3600  -34.8860 O   0  0  0  0  0  0  0  0  0  0  0  0
    8.3820  -34.0700  -33.1120 C   0  0  0  0  0  0  0  0  0  0  0  0
   12.3340  -32.9090  -29.4360 O   0  0  0  0  0  0  0  0  0  0  0  0
    8.2540  -33.0460  -32.1920 C   0  0  0  0  0  0  0  0  0  0  0  0
    8.6730  -32.5210  -31.3100 O   0  0  0  0  0  0  0  0  0  0  0  0
    6.6530  -35.0030  -34.7740 O   0  0  0  0  0  0  0  0  0  0  0  0
    3.8770  -34.1360  -37.1160 O   0  0  0  0  0  0  0  0  0  0  0  0
    7.1540  -32.5540  -32.4080 N   0  0  0  0  0  0  0  0  0  0  0  0
    9.5130  -34.8220  -33.1130 C   0  0  0  0  0  0  0  0  0  0  0  0
   11.0340  -35.8890  -34.1800 C   0  0  0  0  0  0  0  0  0  0  0  0
   11.1860  -32.8340  -30.1570 C   0  0  0  0  0  0  0  0  0  0  0  0
    6.4700  -33.3410  -33.1710 C   0  0  0  0  0  0  0  0  0  0  0  0
   12.4740  -34.0770  -31.4670 O   0  0  0  0  0  0  0  0  0  0  0  0
  1 19  1  0
  2 21  1  0
  3 21  1  0
  4  8  1  0
  4 18  1  0
  4  9  1  0
  5 10  1  0
  5  3  1  0
  6 22  1  0
  6 20  1  0
  7 16  1  0
  7  5  1  0
  7 10  1  0
  9  6  1  0
 11  2  1  0
 11 13  1  0
 13 14  2  0
 15  2  2  0
 17 13  1  0
 18  1  1  0
 18 11  1  0
 18  9  1  0
 19  4  1  0
 20 12  1  0
 21 17  2  0
M  END
$$$$

     RDKit          3D

 13 13  0  0  0  0  0  0  0  0999 V2000
    9.1690  -33.6780  -32.4320 C   0  0  0  0  0  0  0  0  0  0  0  0
    5.8630  -34.8450  -35.8680 C   0  0  0  0  0  0  0  0  0  0  0  0
    7.9620  -36.3290  -34.7150 O   0  0  0  0  0  0  0  0  0  0  0  0
    6.1700  -34.4410  -34.4460 N   0  0  0  0  0  0  0  0  0  0  0  0
    9.3740  -35.5200  -33.4440 N   0  0  0  0  0  0  0  0  0  0  0  0
   10.7430  -34.8450  -31.7880 O   0  0  0  0  0  0  0  0  0  0  0  0
    9.9700  -36.4100  -33.6450 C   0  0  0  0  0  0  0  0  0  0  0  0
    7.3200  -32.0610  -32.7020 C   0  0  0  0  0  0  0  0  0  0  0  0
    9.8370  -34.6700  -32.4460 C   0  0  0  0  0  0  0  0  0  0  0  0
    7.9490  -33.4020  -32.9940 C   0  0  0  0  0  0  0  0  0  0  0  0
    5.0320  -34.0330  -33.8740 O   0  0  0  0  0  0  0  0  0  0  0  0
    7.3990  -34.4030  -33.8300 C   0  0  0  0  0  0  0  0  0  0  0  0
    8.2390  -35.5120  -34.0240 C   0  0  0  0  0  0  0  0  0  0  0  0
  2  4  1  0
  3 13  2  0
  4 11  1  0
  5  9  1  0
  7  5  1  0
  9  1  1  0
  9  6  2  0
 10  8  1  0
 10  1  2  0
 12  4  1  0
 12 10  1  0
 13 12  1  0
 13  5  1  0
M  END
$$$$

     RDKit          3D

 18 21  0  0  0  0  0  0  0  0999 V2000
    9.2520  -32.2040  -30.3940 C   0  0  0  0  0  0  0  0  0  0  0  0
    6.9710  -33.5060  -33.0540 C   0  0  0  0  0  0  0  0  0  0  0  0
    8.1690  -33.3760  -32.2040 C   0  0  0  0  0  0  0  0  0  0  0  0
    9.1580  -37.1960  -34.5240 O   0  0  0  0  0  0  0  0  0  0  0  0
    8.2650  -32.3930  -31.2640 C   0  0  0  0  0  0  0  0  0  0  0  0
    5.6430  -34.8640  -35.4290 C   0  0  0  0  0  0  0  0  0  0  0  0
    4.8730  -33.8460  -34.9710 C   0  0  0  0  0  0  0  0  0  0  0  0
    7.9340  -35.2180  -34.0630 C   0  0  0  0  0  0  0  0  0  0  0  0
    4.8890  -32.9210  -33.9820 C   0  0  0  0  0  0  0  0  0  0  0  0
    5.9150  -32.7190  -33.0200 C   0  0  0  0  0  0  0  0  0  0  0  0
    9.5850  -35.2320  -33.2370 N   0  0  0  0  0  0  0  0  0  0  0  0
   10.3730  -33.8250  -31.5020 C   0  0  0  0  0  0  0  0  0  0  0  0
   10.3560  -32.8970  -30.5420 N   0  0  0  0  0  0  0  0  0  0  0  0
    9.3820  -34.1240  -32.3930 C   0  0  0  0  0  0  0  0  0  0  0  0
    8.9940  -35.9440  -34.0100 C   0  0  0  0  0  0  0  0  0  0  0  0
    7.1490  -34.4990  -33.8390 C   0  0  0  0  0  0  0  0  0  0  0  0
    9.3890  -38.1920  -33.5840 C   0  0  0  0  0  0  0  0  0  0  0  0
    6.7950  -35.1850  -34.7990 C   0  0  0  0  0  0  0  0  0  0  0  0
  2 10  1  0
  2  3  1  0
  3  5  4  0
  4 15  1  0
  4 17  1  0
  5  1  4  0
  6  7  2  0
  7  9  1  0
  8 15  1  0
  8 16  1  0
  9 10  2  0
 11 14  1  0
 12 13  4  0
 13  1  4  0
 14  3  4  0
 14 12  4  0
 15 11  2  0
 16  2  2  0
 18  6  1  0
 18  8  1  0
 18 16  1  0
M  END
$$$$

     RDKit          3D

  2  1  0  0  0  0  0  0  0  0999 V2000
    6.7360  -35.4260  -35.4200 C   0  0  0  0  0  0  0  0  0  0  0  0
    6.9820  -35.8880  -35.0650 C   0  0  0  0  0  0  0  0  0  0  0  0
  1  2  3  0
M  END
$$$$

     RDKit          3D

 20 23  0  0  0  0  0  0  0  0999 V2000
    5.0210  -35.4010  -36.5140 C   0  0  0  0  0  0  0  0  0  0  0  0
    5.7670  -33.8610  -34.1660 C   0  0  0  0  0  0  0  0  0  0  0  0
    7.2510  -32.9310  -32.3510 C   0  0  0  0  0  0  0  0  0  0  0  0
    6.6700  -35.1450  -35.2600 C   0  0  0  0  0  0  0  0  0  0  0  0
   10.3000  -33.9280  -31.9030 C   0  0  0  0  0  0  0  0  0  0  0  0
    8.4790  -34.5610  -33.6620 C   0  0  0  0  0  0  0  0  0  0  0  0
   10.7090  -33.3060  -31.1040 C   0  0  0  0  0  0  0  0  0  0  0  0
   11.9310  -32.9120  -32.0220 C   0  0  0  0  0  0  0  0  0  0  0  0
   10.7150  -32.5420  -29.9380 O   0  0  0  0  0  0  0  0  0  0  0  0
    4.6580  -34.3580  -35.6780 O   0  0  0  0  0  0  0  0  0  0  0  0
    7.7680  -33.8850  -33.0720 C   0  0  0  0  0  0  0  0  0  0  0  0
    3.7780  -33.9120  -35.0750 C   0  0  0  0  0  0  0  0  0  0  0  0
    8.3940  -35.7360  -34.5140 C   0  0  0  0  0  0  0  0  0  0  0  0
    8.2450  -32.5450  -31.5020 C   0  0  0  0  0  0  0  0  0  0  0  0
    4.3930  -33.7060  -34.0030 C   0  0  0  0  0  0  0  0  0  0  0  0
    6.0830  -32.1330  -32.0820 O   0  0  0  0  0  0  0  0  0  0  0  0
    6.6740  -34.4060  -34.0970 C   0  0  0  0  0  0  0  0  0  0  0  0
    9.4820  -32.9760  -31.5020 C   0  0  0  0  0  0  0  0  0  0  0  0
    5.3020  -35.0090  -35.6380 C   0  0  0  0  0  0  0  0  0  0  0  0
    9.6230  -34.8510  -32.8280 C   0  0  0  0  0  0  0  0  0  0  0  0
  1 19  2  0
  2 15  1  0
  3 16  1  0
  3 14  1  0
  4 13  1  0
  4 17  1  0
  5 18  2  0
  5  7  1  0
  6 11  1  0
  6 20  2  0
  7  8  1  0
  7  9  1  0
 10 19  1  0
 10 12  1  0
 11  3  2  0
 12 15  1  0
 13  6  1  0
 14 18  1  0
 17  2  1  0
 17 11  1  0
 18  7  1  0
 19  4  1  0
 20  5  1  0
M  END
$$$$

     RDKit          3D

 22 26  0  0  0  0  0  0  0  0999 V2000
    5.6090  -32.3890  -32.0390 C   0  0  0  0  0  0  0  0  0  0  0  0
   10.1030  -32.6270  -30.1190 O   0  0  0  0  0  0  0  0  0  0  0  0
    3.9840  -33.2640  -33.4150 C   0  0  0  0  0  0  0  0  0  0  0  0
    6.9950  -35.8220  -35.6520 C   0  0  0  0  0  0  0  0  0  0  0  0
    7.4500  -34.2490  -33.7780 C   0  0  0  0  0  0  0  0  0  0  0  0
    9.3980  -32.8140  -33.5340 C   0  0  0  0  0  0  0  0  0  0  0  0
    5.8740  -35.3750  -35.4840 C   0  0  0  0  0  0  0  0  0  0  0  0
    8.5990  -33.8570  -33.1200 C   0  0  0  0  0  0  0  0  0  0  0  0
    6.3090  -33.7360  -33.7650 C   0  0  0  0  0  0  0  0  0  0  0  0
    9.5730  -35.8330  -34.6480 S   0  0  0  0  0  0  0  0  0  0  0  0
    4.9220  -34.8810  -35.1190 C   0  0  0  0  0  0  0  0  0  0  0  0
   10.9360  -34.6430  -32.9700 C   0  0  0  0  0  0  0  0  0  0  0  0
    4.1600  -32.4490  -32.3120 C   0  0  0  0  0  0  0  0  0  0  0  0
    6.3510  -32.9370  -32.6920 O   0  0  0  0  0  0  0  0  0  0  0  0
    7.9240  -35.4850  -34.8770 C   0  0  0  0  0  0  0  0  0  0  0  0
    7.7290  -32.0240  -31.2860 C   0  0  0  0  0  0  0  0  0  0  0  0
   11.0800  -33.6600  -32.0340 C   0  0  0  0  0  0  0  0  0  0  0  0
    9.9800  -33.0690  -31.2580 C   0  0  0  0  0  0  0  0  0  0  0  0
    8.6370  -33.4230  -31.8390 C   0  0  0  0  0  0  0  0  0  0  0  0
    9.6570  -34.9490  -33.3370 C   0  0  0  0  0  0  0  0  0  0  0  0
    6.1360  -31.5590  -31.0090 C   0  0  0  0  0  0  0  0  0  0  0  0
    5.0140  -33.9610  -34.1050 C   0  0  0  0  0  0  0  0  0  0  0  0
  1 13  1  0
  1 21  1  0
  3 13  2  0
  4  7  2  0
  4 15  1  0
  5  9  1  0
  5  8  1  0
  7 11  2  0
  8  6  1  0
  8 19  1  0
  9 14  1  0
 10 20  1  0
 11 22  1  0
 12 17  2  0
 14  1  1  0
 15 10  1  0
 15  5  2  0
 16 21  1  0
 17 18  1  0
 18  2  2  0
 19 16  1  0
 19 18  1  0
 20  8  1  0
 20 12  1  0
 22  9  2  0
 22  3  1  0
M  END
$$$$

     RDKit          3D

  4  3  0  0  0  0  0  0  0  0999 V2000
    6.2010  -34.3400  -34.1640 C   0  0  0  0  0  0  0  0  0  0  0  0
    6.3380  -34.9420  -35.2210 O   0  0  0  0  0  0  0  0  0  0  0  0
    8.5460  -34.3180  -33.6930 N   0  0  0  0  0  0  0  0  0  0  0  0
    7.3230  -33.8360  -33.2910 C   0  0  0  0  0  0  0  0  0  0  0  0
  1  4  1  0
  2  1  2  0
  3  4  1  0
M  END
$$$$

     RDKit          3D

 32 37  0  0  0  0  0  0  0  0999 V2000
    2.8940  -34.2270  -36.3560 C   0  0  0  0  0  0  0  0  0  0  0  0
    5.0060  -34.3660  -34.7740 C   0  0  0  0  0  0  0  0  0  0  0  0
   11.2440  -33.1840  -30.3020 C   0  0  0  0  0  0  0  0  0  0  0  0
    8.3640  -32.3720  -31.3010 C   0  0  0  0  0  0  0  0  0  0  0  0
    1.8120  -34.4860  -36.7680 C   0  0  0  0  0  0  0  0  0  0  0  0
    3.5250  -33.9630  -35.0480 N   0  0  0  0  0  0  0  0  0  0  0  0
    2.3910  -34.3820  -39.0690 C   0  0  0  0  0  0  0  0  0  0  0  0
   13.5470  -31.9820  -27.1820 O   0  0  0  0  0  0  0  0  0  0  0  0
    9.5810  -34.1420  -33.8880 N   0  0  0  0  0  0  0  0  0  0  0  0
   12.4070  -33.9060  -29.9090 C   0  0  0  0  0  0  0  0  0  0  0  0
   12.7380  -32.4300  -28.1780 C   0  0  0  0  0  0  0  0  0  0  0  0
   10.6760  -33.5280  -31.5070 C   0  0  0  0  0  0  0  0  0  0  0  0
    3.9410  -33.5140  -37.4450 C   0  0  0  0  0  0  0  0  0  0  0  0
    9.8280  -36.3950  -33.1290 C   0  0  0  0  0  0  0  0  0  0  0  0
    7.1740  -34.7750  -34.6510 C   0  0  0  0  0  0  0  0  0  0  0  0
    6.7900  -33.8400  -33.8320 C   0  0  0  0  0  0  0  0  0  0  0  0
   11.6340  -31.8060  -28.3990 C   0  0  0  0  0  0  0  0  0  0  0  0
    9.4290  -33.0960  -31.7550 C   0  0  0  0  0  0  0  0  0  0  0  0
    8.3730  -35.2300  -34.8300 C   0  0  0  0  0  0  0  0  0  0  0  0
   13.1370  -33.5020  -28.8680 C   0  0  0  0  0  0  0  0  0  0  0  0
   11.7500  -35.4710  -34.3050 C   0  0  0  0  0  0  0  0  0  0  0  0
    7.5450  -33.3100  -33.0460 C   0  0  0  0  0  0  0  0  0  0  0  0
    6.0210  -35.2850  -35.4150 C   0  0  0  0  0  0  0  0  0  0  0  0
    3.7330  -34.0060  -38.7370 C   0  0  0  0  0  0  0  0  0  0  0  0
   10.4020  -35.1770  -33.7920 C   0  0  0  0  0  0  0  0  0  0  0  0
    4.5390  -32.8470  -33.1790 C   0  0  0  0  0  0  0  0  0  0  0  0
    8.9940  -33.4260  -32.9790 C   0  0  0  0  0  0  0  0  0  0  0  0
    7.2460  -32.3600  -32.3080 C   0  0  0  0  0  0  0  0  0  0  0  0
    3.3590  -32.7950  -34.1480 C   0  0  0  0  0  0  0  0  0  0  0  0
    5.5440  -33.5910  -33.9780 N   0  0  0  0  0  0  0  0  0  0  0  0
   10.8740  -32.1640  -29.4830 C   0  0  0  0  0  0  0  0  0  0  0  0
    1.5830  -34.7050  -38.1490 N   0  0  0  0  0  0  0  0  0  0  0  0
  1 13  1  0
  1  6  1  0
  2 30  4  0
  3 10  4  0
  3 31  4  0
  5  1  1  0
  6  2  1  0
  6 29  1  0
  7 24  1  0
  7 32  2  0
  9 25  1  0
  9 27  1  0
 10 20  4  0
 11  8  1  0
 12  3  1  0
 15 16  4  0
 16 22  1  0
 17 11  4  0
 18 12  2  3
 18  4  1  0
 19 15  1  0
 19  9  1  0
 20 11  4  0
 21 25  1  0
 22 27  2  0
 22 28  1  0
 23  2  4  0
 23 15  4  0
 24 13  1  0
 25 14  1  0
 27 18  1  0
 28  4  1  0
 29 26  1  0
 30 16  4  0
 30 26  1  0
 31 17  4  0
 32  5  1  0
M  END
$$$$

     RDKit          3D

 35 38  0  0  0  0  0  0  0  0999 V2000
    4.4270  -33.2750  -37.5040 C   0  0  0  0  0  0  0  0  0  0  0  0
   10.8820  -32.6880  -32.4370 O   0  0  0  0  0  0  0  0  0  0  0  0
   11.8120  -32.9370  -28.9390 C   0  0  0  0  0  0  0  0  0  0  0  0
   10.2320  -35.2560  -33.2370 C   0  0  0  0  0  0  0  0  0  0  0  0
    7.3560  -31.7260  -30.7540 O   0  0  0  0  0  0  0  0  0  0  0  0
    5.5230  -35.4380  -35.6740 C   0  0  0  0  0  0  0  0  0  0  0  0
    2.9920  -34.1910  -35.7730 C   0  0  0  0  0  0  0  0  0  0  0  0
    8.1410  -33.1540  -32.3980 C   0  0  0  0  0  0  0  0  0  0  0  0
    9.7010  -32.5150  -30.3290 C   0  0  0  0  0  0  0  0  0  0  0  0
   12.8350  -32.3620  -27.9270 N   0  0  0  0  0  0  0  0  0  0  0  0
   11.4540  -33.9970  -30.6580 C   0  0  0  0  0  0  0  0  0  0  0  0
    4.0060  -34.5990  -37.0880 C   0  0  0  0  0  0  0  0  0  0  0  0
    6.9770  -33.6030  -33.3580 C   0  0  0  0  0  0  0  0  0  0  0  0
   10.7330  -32.7500  -29.1350 C   0  0  0  0  0  0  0  0  0  0  0  0
    8.9130  -35.3850  -33.2110 C   0  0  0  0  0  0  0  0  0  0  0  0
    6.4890  -36.3450  -35.4240 C   0  0  0  0  0  0  0  0  0  0  0  0
    5.2790  -34.3430  -34.9450 C   0  0  0  0  0  0  0  0  0  0  0  0
   10.5290  -33.5220  -32.4840 C   0  0  0  0  0  0  0  0  0  0  0  0
    7.6010  -35.9600  -34.3080 C   0  0  0  0  0  0  0  0  0  0  0  0
    6.4350  -34.0370  -33.9810 C   0  0  0  0  0  0  0  0  0  0  0  0
   11.0070  -34.1510  -31.5630 C   0  0  0  0  0  0  0  0  0  0  0  0
    8.5430  -37.1050  -34.1970 C   0  0  0  0  0  0  0  0  0  0  0  0
   11.0220  -34.9350  -34.3280 C   0  0  0  0  0  0  0  0  0  0  0  0
    9.6520  -34.5780  -33.1960 C   0  0  0  0  0  0  0  0  0  0  0  0
   10.0440  -36.7240  -34.4360 C   0  0  0  0  0  0  0  0  0  0  0  0
    4.3620  -35.8970  -36.5710 C   0  0  0  0  0  0  0  0  0  0  0  0
    8.3350  -31.9280  -32.8050 O   0  0  0  0  0  0  0  0  0  0  0  0
    2.9020  -34.8260  -38.3060 O   0  0  0  0  0  0  0  0  0  0  0  0
   12.0130  -33.8530  -29.6800 C   0  0  0  0  0  0  0  0  0  0  0  0
    8.5620  -32.5730  -31.0410 C   0  0  0  0  0  0  0  0  0  0  0  0
   10.3400  -36.7280  -33.2110 O   0  0  0  0  0  0  0  0  0  0  0  0
   11.7950  -33.8270  -31.6980 C   0  0  0  0  0  0  0  0  0  0  0  0
    5.0770  -34.3510  -38.1090 C   0  0  0  0  0  0  0  0  0  0  0  0
    7.1480  -31.0320  -32.1600 C   0  0  0  0  0  0  0  0  0  0  0  0
    4.0720  -33.6700  -34.9310 C   0  0  0  0  0  0  0  0  0  0  0  0
  1 12  1  0
  3 10  1  0
  4 23  1  0
  4 31  1  0
  4 24  1  0
  6 16  2  3
  6 17  1  0
  7 35  1  0
  8 13  1  0
  8 30  1  0
  9 14  2  0
 11 29  1  0
 12 26  1  0
 14  3  1  0
 15 24  1  0
 16 19  1  0
 17 35  2  3
 17 20  1  0
 18  2  1  0
 19 22  1  0
 20 13  3  0
 21 18  1  0
 21 11  1  0
 25 22  1  0
 25 31  1  0
 26  6  1  0
 27  8  1  0
 27 34  1  0
 28 12  1  0
 29  3  1  0
 30  5  1  0
 30  9  2  0
 32  2  1  0
 32 21  1  0
 32 11  1  0
 33  1  1  0
 33 12  1  0
 34  5  1  0
M  END
$$$$

     RDKit          3D

  7  7  0  0  0  0  0  0  0  0999 V2000
    8.8400  -35.2280  -33.6380 N   0  0  0  0  0  0  0  0  0  0  0  0
   10.2450  -35.2240  -33.9330 C   0  0  0  0  0  0  0  0  0  0  0  0
    9.9210  -33.0380  -31.0910 N   0  0  0  0  0  0  0  0  0  0  0  0
    7.4880  -33.1570  -33.0340 C   0  0  0  0  0  0  0  0  0  0  0  0
   10.9940  -34.4770  -32.7810 C   0  0  0  0  0  0  0  0  0  0  0  0
    9.8170  -33.8350  -32.1400 C   0  0  0  0  0  0  0  0  0  0  0  0
    8.6870  -34.1260  -32.8290 C   0  0  0  0  0  0  0  0  0  0  0  0
  1  7  1  0
  2  1  1  0
  2  5  1  0
  5  6  1  0
  6  3  2  0
  7  4  1  0
  7  6  1  0
M  END
$$$$

     RDKit          3D

 36 41  0  0  0  0  0  0  0  0999 V2000
   11.8310  -31.3440  -28.7140 F   0  0  0  0  0  0  0  0  0  0  0  0
    8.8780  -35.9630  -34.8890 C   0  0  0  0  0  0  0  0  0  0  0  0
   11.1980  -33.3570  -28.0050 C   0  0  0  0  0  0  0  0  0  0  0  0
    6.8330  -34.9560  -34.8100 C   0  0  0  0  0  0  0  0  0  0  0  0
   10.3660  -34.1830  -30.1790 C   0  0  0  0  0  0  0  0  0  0  0  0
    9.9670  -35.0910  -33.4290 C   0  0  0  0  0  0  0  0  0  0  0  0
    6.8000  -35.4300  -36.1270 C   0  0  0  0  0  0  0  0  0  0  0  0
    3.8170  -34.9680  -36.2210 C   0  0  0  0  0  0  0  0  0  0  0  0
    3.2270  -35.4750  -38.0350 N   0  0  0  0  0  0  0  0  0  0  0  0
   10.8630  -36.7360  -33.8510 C   0  0  0  0  0  0  0  0  0  0  0  0
    9.2790  -33.1560  -32.0910 C   0  0  0  0  0  0  0  0  0  0  0  0
    5.5790  -34.8880  -34.6370 C   0  0  0  0  0  0  0  0  0  0  0  0
   10.0880  -36.8010  -34.7130 C   0  0  0  0  0  0  0  0  0  0  0  0
    7.1080  -31.1840  -30.3160 F   0  0  0  0  0  0  0  0  0  0  0  0
   10.4020  -33.9290  -31.3130 C   0  0  0  0  0  0  0  0  0  0  0  0
   12.0310  -32.3380  -28.9230 C   0  0  0  0  0  0  0  0  0  0  0  0
    3.9650  -34.4750  -38.4530 C   0  0  0  0  0  0  0  0  0  0  0  0
    8.7020  -32.1900  -31.0280 C   0  0  0  0  0  0  0  0  0  0  0  0
   12.0900  -32.4930  -30.3330 C   0  0  0  0  0  0  0  0  0  0  0  0
    3.4490  -34.1420  -39.8580 C   0  0  0  0  0  0  0  0  0  0  0  0
    6.9710  -33.0290  -33.0300 C   0  0  0  0  0  0  0  0  0  0  0  0
    7.9680  -33.6340  -32.9710 C   0  0  0  0  0  0  0  0  0  0  0  0
    4.8300  -35.5120  -35.8420 O   0  0  0  0  0  0  0  0  0  0  0  0
   11.7440  -33.1920  -31.3370 C   0  0  0  0  0  0  0  0  0  0  0  0
    6.6910  -31.8970  -32.3110 C   0  0  0  0  0  0  0  0  0  0  0  0
    3.0920  -36.0890  -36.7420 C   0  0  0  0  0  0  0  0  0  0  0  0
    5.1500  -34.2270  -38.0140 C   0  0  0  0  0  0  0  0  0  0  0  0
    3.3370  -33.9170  -35.7390 C   0  0  0  0  0  0  0  0  0  0  0  0
   10.7320  -34.4530  -28.9810 C   0  0  0  0  0  0  0  0  0  0  0  0
   13.1070  -32.1810  -27.6820 F   0  0  0  0  0  0  0  0  0  0  0  0
   10.8040  -35.6730  -33.0250 C   0  0  0  0  0  0  0  0  0  0  0  0
    5.1480  -35.2740  -36.8870 C   0  0  0  0  0  0  0  0  0  0  0  0
    1.9510  -35.3420  -37.7700 C   0  0  0  0  0  0  0  0  0  0  0  0
    7.4710  -31.7070  -31.1890 C   0  0  0  0  0  0  0  0  0  0  0  0
    9.0230  -35.1040  -34.1090 C   0  0  0  0  0  0  0  0  0  0  0  0
    7.8130  -34.4550  -33.9480 C   0  0  0  0  0  0  0  0  0  0  0  0
  2 13  4  0
  2 35  4  0
  4 12  2  0
  5 29  1  0
  6 31  4  0
  7  4  1  0
  8 23  1  0
  8 28  1  0
  9 33  1  0
  9 26  1  0
 10 31  4  0
 11 15  1  0
 11 18  1  0
 13 10  4  0
 15 24  1  0
 15  5  1  0
 16  1  1  0
 16  3  1  0
 16 30  1  0
 17 20  1  0
 17  9  1  0
 17 27  1  0
 19 16  1  0
 21 22  2  0
 21 25  1  0
 22 11  1  0
 24 19  1  0
 25 34  1  0
 26 33  1  0
 26  8  1  0
 27 32  1  0
 29  3  1  0
 32  8  1  0
 32  7  1  0
 32 23  1  0
 34 18  2  0
 34 14  1  0
 35 36  1  0
 35  6  4  0
 36  4  1  0
 36 22  1  0
M  END
$$$$

     RDKit          3D

  8  8  0  0  0  0  0  0  0  0999 V2000
    8.3610  -34.7070  -33.9340 C   0  0  0  0  0  0  0  0  0  0  0  0
    9.9790  -33.2810  -32.3930 C   0  0  0  0  0  0  0  0  0  0  0  0
    9.7860  -34.2620  -33.1130 C   0  0  0  0  0  0  0  0  0  0  0  0
    6.5210  -32.2860  -32.3360 N   0  0  0  0  0  0  0  0  0  0  0  0
    8.8000  -32.7930  -32.2080 C   0  0  0  0  0  0  0  0  0  0  0  0
    7.4440  -33.2890  -32.8300 C   0  0  0  0  0  0  0  0  0  0  0  0
    8.7400  -35.5090  -35.2510 C   0  0  0  0  0  0  0  0  0  0  0  0
    7.4840  -34.4560  -34.1290 C   0  0  0  0  0  0  0  0  0  0  0  0
  1  3  4  0
  2  5  4  0
  3  2  4  0
  6  4  1  0
  6  5  4  0
  7  1  1  0
  8  1  4  0
  8  6  4  0
M  END
$$$$

     RDKit          3D

 19 21  0  0  0  0  0  0  0  0999 V2000
    4.5450  -34.2460  -36.3810 N   0  0  0  0  0  0  0  0  0  0  0  0
    4.5180  -34.1320  -38.7080 C   0  0  0  0  0  0  0  0  0  0  0  0
    1.9400  -31.4400  -32.0770 C   0  0  0  0  0  0  0  0  0  0  0  0
    2.6840  -33.0270  -34.2170 O   0  0  0  0  0  0  0  0  0  0  0  0
    1.1910  -31.2140  -31.0000 C   0  0  0  0  0  0  0  0  0  0  0  0
    3.0090  -31.8400  -29.4930 C   0  0  0  0  0  0  0  0  0  0  0  0
    3.8150  -33.2470  -33.7540 C   0  0  0  0  0  0  0  0  0  0  0  0
    6.4810  -35.0130  -37.3820 C   0  0  0  0  0  0  0  0  0  0  0  0
    7.0700  -35.4470  -36.1980 C   0  0  0  0  0  0  0  0  0  0  0  0
    6.3410  -35.1850  -35.1020 C   0  0  0  0  0  0  0  0  0  0  0  0
    3.8130  -31.9360  -30.6850 C   0  0  0  0  0  0  0  0  0  0  0  0
    5.2240  -34.4940  -37.5040 C   0  0  0  0  0  0  0  0  0  0  0  0
    5.4960  -32.2700  -31.9080 C   0  0  0  0  0  0  0  0  0  0  0  0
    5.0520  -31.9730  -30.7450 C   0  0  0  0  0  0  0  0  0  0  0  0
    4.3600  -32.2720  -32.8200 C   0  0  0  0  0  0  0  0  0  0  0  0
    5.0730  -34.5960  -35.1890 C   0  0  0  0  0  0  0  0  0  0  0  0
    4.4130  -34.4050  -34.0110 N   0  0  0  0  0  0  0  0  0  0  0  0
    1.6810  -31.4160  -29.6650 C   0  0  0  0  0  0  0  0  0  0  0  0
    3.3090  -31.8930  -31.8650 N   0  0  0  0  0  0  0  0  0  0  0  0
  1 16  4  0
  2 12  1  0
  3 19  1  0
  3  5  1  0
  4  7  2  0
  5 18  2  0
  8  9  4  0
  9 10  4  0
 11  6  2  0
 12  8  4  0
 12  1  4  0
 13 14  1  0
 14 11  1  0
 15  7  1  0
 15 13  1  0
 15 19  1  0
 16 10  4  0
 16 17  1  0
 17  7  1  0
 18  6  1  0
 19 11  1  0
M  END
$$$$

     RDKit          3D

 26 30  0  0  0  0  0  0  0  0999 V2000
    4.1120  -32.2970  -32.4590 C   0  0  0  0  0  0  0  0  0  0  0  0
    8.8110  -34.3890  -33.6830 C   0  0  0  0  0  0  0  0  0  0  0  0
    7.3440  -35.3310  -35.2190 C   0  0  0  0  0  0  0  0  0  0  0  0
    9.3160  -36.2880  -34.7960 C   0  0  0  0  0  0  0  0  0  0  0  0
    1.7660  -31.1980  -30.5940 C   0  0  0  0  0  0  0  0  0  0  0  0
    6.5030  -35.4360  -36.0100 C   0  0  0  0  0  0  0  0  0  0  0  0
    6.4320  -32.1960  -31.9230 C   0  0  0  0  0  0  0  0  0  0  0  0
   12.7130  -33.8390  -29.6920 O   0  0  0  0  0  0  0  0  0  0  0  0
    7.5550  -32.7780  -32.3390 N   0  0  0  0  0  0  0  0  0  0  0  0
    7.4900  -33.6110  -33.2260 C   0  0  0  0  0  0  0  0  0  0  0  0
    3.1190  -31.7260  -30.2850 C   0  0  0  0  0  0  0  0  0  0  0  0
    5.3630  -31.2610  -30.8950 N   0  0  0  0  0  0  0  0  0  0  0  0
   11.4140  -33.6370  -33.2190 C   0  0  0  0  0  0  0  0  0  0  0  0
    5.6580  -32.6820  -32.7780 C   0  0  0  0  0  0  0  0  0  0  0  0
   10.7540  -36.6010  -34.4670 C   0  0  0  0  0  0  0  0  0  0  0  0
    1.8290  -29.7530  -30.5480 C   0  0  0  0  0  0  0  0  0  0  0  0
    6.2960  -33.5540  -33.6530 C   0  0  0  0  0  0  0  0  0  0  0  0
   12.0160  -33.7800  -30.7750 C   0  0  0  0  0  0  0  0  0  0  0  0
    7.7350  -31.2950  -31.2390 O   0  0  0  0  0  0  0  0  0  0  0  0
   10.7040  -34.2560  -30.7600 C   0  0  0  0  0  0  0  0  0  0  0  0
   12.2120  -33.5640  -32.0880 C   0  0  0  0  0  0  0  0  0  0  0  0
    8.6000  -35.2970  -34.6900 C   0  0  0  0  0  0  0  0  0  0  0  0
   11.1000  -35.2120  -34.0010 C   0  0  0  0  0  0  0  0  0  0  0  0
   10.3730  -34.7170  -33.0030 C   0  0  0  0  0  0  0  0  0  0  0  0
   10.3200  -35.0950  -31.7310 C   0  0  0  0  0  0  0  0  0  0  0  0
    4.1490  -31.6340  -31.2960 C   0  0  0  0  0  0  0  0  0  0  0  0
  1 26  1  0
  2 10  1  0
  2 24  1  0
  4 22  1  0
  4 15  1  0
  5 16  1  0
  5 11  1  0
  6  3  3  0
  7 19  1  0
  7 12  1  0
  9  7  1  0
 10  9  2  0
 13 24  1  0
 13 21  1  0
 14  1  1  0
 14  7  1  0
 17 10  1  0
 17 14  2  0
 18 20  1  0
 18  8  1  0
 21 18  2  0
 22  3  1  0
 22  2  1  0
 23 15  1  0
 23 13  1  0
 23 24  1  0
 24 25  1  0
 25 20  1  0
 26 12  1  0
 26 11  1  0
M  END
$$$$

     RDKit          3D

  9  9  0  0  0  0  0  0  0  0999 V2000
    6.6420  -33.3700  -33.4300 C   0  0  0  0  0  0  0  0  0  0  0  0
    8.6700  -34.7320  -33.5070 C   0  0  0  0  0  0  0  0  0  0  0  0
    7.9320  -33.6000  -33.0220 C   0  0  0  0  0  0  0  0  0  0  0  0
    9.6680  -35.1250  -32.9280 F   0  0  0  0  0  0  0  0  0  0  0  0
    8.7430  -34.4310  -34.7580 F   0  0  0  0  0  0  0  0  0  0  0  0
    7.9650  -35.8270  -33.6320 F   0  0  0  0  0  0  0  0  0  0  0  0
    6.2650  -32.3290  -32.8460 O   0  0  0  0  0  0  0  0  0  0  0  0
    7.1710  -31.8710  -32.0000 C   0  0  0  0  0  0  0  0  0  0  0  0
    8.2160  -32.6150  -31.9870 C   0  0  0  0  0  0  0  0  0  0  0  0
  1  3  4  0
  1  7  4  0
  2  3  1  0
  2  4  1  0
  3  9  4  0
  5  2  1  0
  6  2  1  0
  7  8  4  0
  8  9  4  0
M  END
$$$$

     RDKit          3D

 20 23  0  0  0  0  0  0  0  0999 V2000
    7.7480  -31.6170  -31.4820 O   0  0  0  0  0  0  0  0  0  0  0  0
    7.6680  -33.3670  -32.9990 C   0  0  0  0  0  0  0  0  0  0  0  0
    6.1900  -35.1600  -35.9850 C   0  0  0  0  0  0  0  0  0  0  0  0
    3.4450  -32.3930  -31.1270 C   0  0  0  0  0  0  0  0  0  0  0  0
    5.1950  -35.3000  -36.9040 N   0  0  0  0  0  0  0  0  0  0  0  0
    8.0820  -36.1770  -35.0660 C   0  0  0  0  0  0  0  0  0  0  0  0
    4.4870  -32.3930  -32.1900 C   0  0  0  0  0  0  0  0  0  0  0  0
   11.3870  -32.9000  -32.1680 C   0  0  0  0  0  0  0  0  0  0  0  0
    7.5280  -35.9780  -36.0870 C   0  0  0  0  0  0  0  0  0  0  0  0
    5.6380  -32.0280  -31.8250 C   0  0  0  0  0  0  0  0  0  0  0  0
    6.9970  -32.2690  -32.1740 C   0  0  0  0  0  0  0  0  0  0  0  0
   11.9280  -34.0270  -32.8700 C   0  0  0  0  0  0  0  0  0  0  0  0
    7.4350  -35.4810  -33.6520 C   0  0  0  0  0  0  0  0  0  0  0  0
    6.1830  -34.3680  -34.9700 C   0  0  0  0  0  0  0  0  0  0  0  0
    8.8140  -35.9240  -33.6180 C   0  0  0  0  0  0  0  0  0  0  0  0
    9.2100  -33.6030  -32.8870 C   0  0  0  0  0  0  0  0  0  0  0  0
    9.7020  -34.6640  -33.4690 C   0  0  0  0  0  0  0  0  0  0  0  0
    6.9640  -34.1270  -33.8930 C   0  0  0  0  0  0  0  0  0  0  0  0
    9.9210  -32.8200  -32.1400 C   0  0  0  0  0  0  0  0  0  0  0  0
   11.0700  -34.9190  -33.5210 C   0  0  0  0  0  0  0  0  0  0  0  0
  2 16  1  0
  2 11  1  0
  3 14  2  0
  5  3  1  0
  6  9  1  0
  6 13  1  0
  6 15  1  0
  7 10  1  0
  7  4  1  0
  8 19  4  0
  9  3  1  0
 11 10  1  0
 11  1  2  0
 12  8  4  0
 13 15  1  0
 14 18  1  0
 15 17  1  0
 16 19  4  0
 17 16  4  0
 18 13  1  0
 18  2  1  0
 20 17  4  0
 20 12  4  0
M  END
$$$$

     RDKit          3D

 12 13  0  0  0  0  0  0  0  0999 V2000
    7.8170  -33.9520  -33.1180 C   0  0  0  0  0  0  0  0  0  0  0  0
   11.0640  -34.0570  -31.8730 N   0  0  0  0  0  0  0  0  0  0  0  0
    9.9730  -34.6850  -32.5220 C   0  0  0  0  0  0  0  0  0  0  0  0
   10.0610  -35.8020  -33.0240 N   0  0  0  0  0  0  0  0  0  0  0  0
    7.4580  -34.9580  -33.9370 C   0  0  0  0  0  0  0  0  0  0  0  0
    6.7880  -32.7710  -33.0720 S   0  0  0  0  0  0  0  0  0  0  0  0
   10.9100  -33.3310  -30.6050 C   0  0  0  0  0  0  0  0  0  0  0  0
    8.1680  -36.1060  -34.2850 C   0  0  0  0  0  0  0  0  0  0  0  0
    8.9220  -33.7070  -32.3920 N   0  0  0  0  0  0  0  0  0  0  0  0
    9.3390  -36.5730  -33.7770 C   0  0  0  0  0  0  0  0  0  0  0  0
    6.0230  -34.6340  -34.6930 S   0  0  0  0  0  0  0  0  0  0  0  0
    5.7010  -33.4640  -34.0630 C   0  0  0  0  0  0  0  0  0  0  0  0
  1  6  1  0
  1  9  1  0
  2  7  1  0
  3  9  2  0
  3  2  1  0
  4  3  2  0
  5  1  2  0
  8  5  1  0
  8 10  2  0
 10  4  1  0
 11 12  1  0
 11  5  1  0
 12  6  1  0
M  END
$$$$

     RDKit          3D

 20 23  0  0  0  0  0  0  0  0999 V2000
    9.8500  -34.1160  -32.9340 C   0  0  0  0  0  0  0  0  0  0  0  0
   11.1240  -33.7860  -33.3610 C   0  0  0  0  0  0  0  0  0  0  0  0
   12.0590  -33.4460  -30.1040 C   0  0  0  0  0  0  0  0  0  0  0  0
    7.6740  -34.6000  -34.0680 N   0  0  0  0  0  0  0  0  0  0  0  0
    5.0590  -32.7630  -32.9550 C   0  0  0  0  0  0  0  0  0  0  0  0
    6.2820  -33.2650  -33.3450 C   0  0  0  0  0  0  0  0  0  0  0  0
    4.0200  -33.0530  -33.7650 C   0  0  0  0  0  0  0  0  0  0  0  0
    9.7880  -35.3970  -34.2910 C   0  0  0  0  0  0  0  0  0  0  0  0
    8.2580  -33.9200  -33.1520 C   0  0  0  0  0  0  0  0  0  0  0  0
    1.6060  -32.6140  -34.0490 N   0  0  0  0  0  0  0  0  0  0  0  0
    9.9460  -33.7270  -31.2460 C   0  0  0  0  0  0  0  0  0  0  0  0
    6.4020  -34.1700  -34.2210 C   0  0  0  0  0  0  0  0  0  0  0  0
    2.7920  -32.3690  -33.4050 C   0  0  0  0  0  0  0  0  0  0  0  0
   11.3600  -33.6870  -31.0690 C   0  0  0  0  0  0  0  0  0  0  0  0
    4.1620  -33.8590  -34.8430 C   0  0  0  0  0  0  0  0  0  0  0  0
    7.5060  -33.0880  -32.7400 N   0  0  0  0  0  0  0  0  0  0  0  0
    5.3820  -34.5190  -35.1270 C   0  0  0  0  0  0  0  0  0  0  0  0
   11.8260  -33.8000  -32.2630 N   0  0  0  0  0  0  0  0  0  0  0  0
    2.6610  -31.5610  -32.5370 O   0  0  0  0  0  0  0  0  0  0  0  0
    8.0310  -35.4620  -34.7670 C   0  0  0  0  0  0  0  0  0  0  0  0
  1  8  1  0
  1 11  1  0
  2  1  1  0
  2 18  1  0
  4  9  4  0
  6  5  4  0
  6 16  4  0
  7 13  1  0
  7  5  4  0
  9  1  1  0
  9 16  4  0
 10 13  1  0
 11 14  1  0
 12  4  4  0
 12  6  4  0
 13 19  2  0
 14  3  1  0
 15  7  4  0
 17 15  4  0
 17 12  4  0
 18 14  2  0
 20  8  2  0
 20  4  1  0
M  END
$$$$

     RDKit          3D

 17 20  0  0  0  0  0  0  0  0999 V2000
    9.9360  -33.3130  -31.7510 C   0  0  0  0  0  0  0  0  0  0  0  0
    9.2290  -35.5470  -33.5970 C   0  0  0  0  0  0  0  0  0  0  0  0
    8.9590  -34.4270  -33.6830 C   0  0  0  0  0  0  0  0  0  0  0  0
    7.2670  -34.3840  -34.0730 C   0  0  0  0  0  0  0  0  0  0  0  0
    7.8910  -33.7690  -33.2860 C   0  0  0  0  0  0  0  0  0  0  0  0
    8.5180  -32.5600  -31.6000 C   0  0  0  0  0  0  0  0  0  0  0  0
    8.8710  -35.2480  -34.5750 C   0  0  0  0  0  0  0  0  0  0  0  0
   10.0510  -33.9210  -33.3790 C   0  0  0  0  0  0  0  0  0  0  0  0
   10.4030  -34.0840  -32.6060 C   0  0  0  0  0  0  0  0  0  0  0  0
    6.3180  -34.4790  -34.4630 C   0  0  0  0  0  0  0  0  0  0  0  0
    5.2420  -33.7650  -34.1880 C   0  0  0  0  0  0  0  0  0  0  0  0
    6.1690  -31.3480  -31.7160 F   0  0  0  0  0  0  0  0  0  0  0  0
    5.2920  -32.7560  -33.3260 C   0  0  0  0  0  0  0  0  0  0  0  0
    7.8170  -32.8540  -32.5130 C   0  0  0  0  0  0  0  0  0  0  0  0
    8.3810  -31.4960  -30.7480 F   0  0  0  0  0  0  0  0  0  0  0  0
    6.4690  -32.5710  -32.5840 C   0  0  0  0  0  0  0  0  0  0  0  0
   10.6770  -33.1180  -30.8700 O   0  0  0  0  0  0  0  0  0  0  0  0
  1  6  1  0
  1 17  2  0
  3  2  1  0
  3  8  1  0
  3  5  1  0
  5  4  1  0
  5 14  1  0
  6 15  1  0
  7  4  1  0
  7  3  1  0
  7  2  1  0
  8  9  1  0
  9  1  1  0
 10 11  1  0
 10  4  2  0
 11 13  2  0
 13 16  1  0
 14  6  1  0
 16 14  2  0
 16 12  1  0
M  END
$$$$

     RDKit          3D

  7  7  0  0  0  0  0  0  0  0999 V2000
    4.9040  -33.0690  -33.4410 N   0  0  0  0  0  0  0  0  0  0  0  0
    6.8780  -33.8910  -33.4540 C   0  0  0  0  0  0  0  0  0  0  0  0
    4.9920  -35.0040  -34.6420 O   0  0  0  0  0  0  0  0  0  0  0  0
    5.2310  -32.4950  -32.9870 C   0  0  0  0  0  0  0  0  0  0  0  0
    6.2590  -32.1680  -32.3830 C   0  0  0  0  0  0  0  0  0  0  0  0
    7.2860  -32.8830  -32.7230 C   0  0  0  0  0  0  0  0  0  0  0  0
    5.6400  -34.0890  -33.9580 C   0  0  0  0  0  0  0  0  0  0  0  0
  1  4  2  0
  2  6  1  0
  3  7  2  0
  4  5  1  0
  6  5  2  0
  7  2  1  0
  7  1  1  0
M  END
$$$$

     RDKit          3D

 34 37  0  0  0  0  0  0  0  0999 V2000
    3.8940  -33.0100  -39.3590 C   0  0  0  0  0  0  0  0  0  0  0  0
    4.3260  -32.1440  -31.1950 O   0  0  0  0  0  0  0  0  0  0  0  0
    3.8400  -33.0670  -34.0730 C   0  0  0  0  0  0  0  0  0  0  0  0
    3.9920  -33.6730  -36.9520 O   0  0  0  0  0  0  0  0  0  0  0  0
    8.4430  -32.5490  -32.6600 C   0  0  0  0  0  0  0  0  0  0  0  0
    3.9560  -37.1600  -35.9960 O   0  0  0  0  0  0  0  0  0  0  0  0
   14.0900  -32.6440  -27.4400 O   0  0  0  0  0  0  0  0  0  0  0  0
    9.8900  -34.6790  -33.7300 C   0  0  0  0  0  0  0  0  0  0  0  0
    4.5100  -34.3180  -34.3590 C   0  0  0  0  0  0  0  0  0  0  0  0
    9.1040  -32.8760  -31.5250 C   0  0  0  0  0  0  0  0  0  0  0  0
    6.5920  -31.4520  -30.9300 O   0  0  0  0  0  0  0  0  0  0  0  0
    6.5190  -34.8790  -35.0140 C   0  0  0  0  0  0  0  0  0  0  0  0
    5.2880  -34.6440  -35.2390 C   0  0  0  0  0  0  0  0  0  0  0  0
   12.1580  -34.4190  -30.7820 N   0  0  0  0  0  0  0  0  0  0  0  0
   12.3850  -33.1540  -28.9750 C   0  0  0  0  0  0  0  0  0  0  0  0
    5.7860  -31.9690  -31.8120 C   0  0  0  0  0  0  0  0  0  0  0  0
    3.5660  -36.0130  -36.2700 C   0  0  0  0  0  0  0  0  0  0  0  0
   13.0320  -33.8670  -29.9050 C   0  0  0  0  0  0  0  0  0  0  0  0
   11.0180  -33.8980  -30.5570 C   0  0  0  0  0  0  0  0  0  0  0  0
    7.5760  -34.4280  -34.1090 C   0  0  0  0  0  0  0  0  0  0  0  0
   12.8500  -32.6470  -27.7010 C   0  0  0  0  0  0  0  0  0  0  0  0
    5.4640  -33.3450  -39.2840 C   0  0  0  0  0  0  0  0  0  0  0  0
    2.3770  -35.7130  -36.8570 O   0  0  0  0  0  0  0  0  0  0  0  0
    9.0020  -34.9230  -34.3620 C   0  0  0  0  0  0  0  0  0  0  0  0
    6.0710  -33.8220  -39.3050 C   0  0  0  0  0  0  0  0  0  0  0  0
   12.0210  -32.4070  -26.7290 O   0  0  0  0  0  0  0  0  0  0  0  0
   10.0030  -34.9740  -32.2860 O   0  0  0  0  0  0  0  0  0  0  0  0
    4.9370  -33.1260  -33.6570 C   0  0  0  0  0  0  0  0  0  0  0  0
    6.0320  -32.8710  -32.9130 C   0  0  0  0  0  0  0  0  0  0  0  0
    9.9870  -34.0030  -31.3800 C   0  0  0  0  0  0  0  0  0  0  0  0
    3.1140  -33.3950  -38.1090 C   0  0  0  0  0  0  0  0  0  0  0  0
   11.1160  -33.2060  -29.3950 C   0  0  0  0  0  0  0  0  0  0  0  0
    7.3760  -33.4240  -33.1410 C   0  0  0  0  0  0  0  0  0  0  0  0
    4.6380  -34.8850  -36.4720 C   0  0  0  0  0  0  0  0  0  0  0  0
  1 22  1  0
  1 31  1  0
  5 10  1  0
  8 27  1  0
  9  3  1  0
  9 28  1  0
 10 30  1  0
 12 20  1  0
 13 34  1  0
 13 12  1  0
 13  9  1  0
 14 19  2  0
 14 18  1  0
 15 21  1  0
 16  2  2  0
 16 11  1  0
 17  6  1  0
 18 15  1  0
 19 32  1  0
 20 33  1  0
 21  7  2  0
 21 26  1  0
 23 17  2  0
 24 20  2  3
 24  8  1  0
 25 22  2  0
 27 30  1  0
 28  3  1  0
 28 29  1  0
 29 16  1  0
 30 19  1  0
 31  4  1  0
 32 15  2  0
 33 29  1  0
 33  5  1  0
 34  4  1  0
 34 17  1  0
M  END
$$$$

     RDKit          3D

 24 27  0  0  0  0  0  0  0  0999 V2000
   12.5840  -33.6030  -30.9660 C   0  0  0  0  0  0  0  0  0  0  0  0
    8.0550  -32.8590  -31.9370 C   0  0  0  0  0  0  0  0  0  0  0  0
    6.1570  -32.3040  -32.8870 C   0  0  0  0  0  0  0  0  0  0  0  0
    7.3740  -34.0880  -33.6930 N   0  0  0  0  0  0  0  0  0  0  0  0
   10.6420  -32.6820  -29.6770 C   0  0  0  0  0  0  0  0  0  0  0  0
    5.2950  -34.7180  -35.2700 C   0  0  0  0  0  0  0  0  0  0  0  0
   11.9190  -33.0530  -29.8180 C   0  0  0  0  0  0  0  0  0  0  0  0
    9.3670  -36.9160  -35.0580 C   0  0  0  0  0  0  0  0  0  0  0  0
    6.0450  -31.3830  -31.0070 N   0  0  0  0  0  0  0  0  0  0  0  0
    3.1390  -33.0590  -34.8580 C   0  0  0  0  0  0  0  0  0  0  0  0
    8.2930  -33.7310  -32.8890 C   0  0  0  0  0  0  0  0  0  0  0  0
    5.2010  -33.6050  -34.2230 N   0  0  0  0  0  0  0  0  0  0  0  0
    8.8190  -37.5080  -34.2020 C   0  0  0  0  0  0  0  0  0  0  0  0
    6.2410  -33.5440  -33.6510 C   0  0  0  0  0  0  0  0  0  0  0  0
    3.3570  -33.6900  -36.1490 O   0  0  0  0  0  0  0  0  0  0  0  0
   10.3980  -35.3690  -33.7310 C   0  0  0  0  0  0  0  0  0  0  0  0
    3.9410  -34.7780  -36.0090 C   0  0  0  0  0  0  0  0  0  0  0  0
    9.9750  -33.1740  -30.7440 C   0  0  0  0  0  0  0  0  0  0  0  0
   10.4000  -33.8140  -31.8830 C   0  0  0  0  0  0  0  0  0  0  0  0
   11.7660  -33.9740  -32.1020 C   0  0  0  0  0  0  0  0  0  0  0  0
    4.0570  -32.8730  -34.0280 C   0  0  0  0  0  0  0  0  0  0  0  0
    9.7980  -36.7330  -33.5290 C   0  0  0  0  0  0  0  0  0  0  0  0
    9.6270  -34.3040  -32.9610 N   0  0  0  0  0  0  0  0  0  0  0  0
    6.7780  -32.1160  -31.8120 C   0  0  0  0  0  0  0  0  0  0  0  0
  1  7  4  0
  2 24  4  0
  3 24  4  0
  4 14  4  0
  4 11  4  0
  6 12  1  0
  7  5  4  0
  8 13  1  0
  8 22  1  0
 10 21  1  0
 11  2  4  0
 12 21  1  0
 12 14  1  0
 13 22  1  0
 14  3  4  0
 15 17  1  0
 15 10  1  0
 16 22  1  0
 16 23  1  0
 17  6  1  0
 18  5  4  0
 19 18  4  0
 20 19  4  0
 20  1  4  0
 23 11  1  0
 23 19  1  0
 24  9  1  0
M  END
$$$$

     RDKit          3D

 39 43  0  0  0  0  0  0  0  0999 V2000
    7.1340  -34.5670  -34.2290 C   0  0  0  0  0  0  0  0  0  0  0  0
    3.4760  -33.4790  -32.8650 C   0  0  0  0  0  0  0  0  0  0  0  0
    5.8600  -35.9330  -35.4700 O   0  0  0  0  0  0  0  0  0  0  0  0
   10.2470  -34.5930  -32.4030 C   0  0  0  0  0  0  0  0  0  0  0  0
    6.9830  -31.1190  -31.4220 C   0  0  0  0  0  0  0  0  0  0  0  0
    7.7680  -33.6080  -33.2710 C   0  0  0  0  0  0  0  0  0  0  0  0
    8.6250  -33.5130  -34.2360 O   0  0  0  0  0  0  0  0  0  0  0  0
    5.1600  -34.8160  -35.5090 C   0  0  0  0  0  0  0  0  0  0  0  0
    3.2950  -31.8620  -30.8370 C   0  0  0  0  0  0  0  0  0  0  0  0
    9.1670  -32.0820  -29.7730 C   0  0  0  0  0  0  0  0  0  0  0  0
    8.6550  -31.2450  -29.3730 O   0  0  0  0  0  0  0  0  0  0  0  0
    6.7230  -32.6090  -32.6840 C   0  0  0  0  0  0  0  0  0  0  0  0
    7.9360  -35.9720  -34.3870 C   0  0  0  0  0  0  0  0  0  0  0  0
    5.7760  -34.1380  -34.2060 C   0  0  0  0  0  0  0  0  0  0  0  0
   11.1290  -33.4380  -30.4410 C   0  0  0  0  0  0  0  0  0  0  0  0
    9.4660  -35.7330  -32.3920 C   0  0  0  0  0  0  0  0  0  0  0  0
    3.1620  -33.2010  -36.7220 O   0  0  0  0  0  0  0  0  0  0  0  0
    2.5280  -32.3510  -32.1530 C   0  0  0  0  0  0  0  0  0  0  0  0
    9.1540  -35.3180  -36.3130 O   0  0  0  0  0  0  0  0  0  0  0  0
   10.1590  -37.0430  -34.1030 O   0  0  0  0  0  0  0  0  0  0  0  0
   12.1160  -32.8280  -31.1770 C   0  0  0  0  0  0  0  0  0  0  0  0
    4.5070  -33.4030  -36.4050 C   0  0  0  0  0  0  0  0  0  0  0  0
   11.0080  -35.0360  -30.2170 C   0  0  0  0  0  0  0  0  0  0  0  0
    3.4330  -33.1710  -35.2210 C   0  0  0  0  0  0  0  0  0  0  0  0
    4.6000  -31.9100  -30.8910 C   0  0  0  0  0  0  0  0  0  0  0  0
    8.5300  -32.8780  -31.0310 C   0  0  0  0  0  0  0  0  0  0  0  0
    9.6420  -33.3490  -31.9950 C   0  0  0  0  0  0  0  0  0  0  0  0
   11.5560  -34.4850  -33.0330 C   0  0  0  0  0  0  0  0  0  0  0  0
    4.1800  -32.9290  -34.0540 C   0  0  0  0  0  0  0  0  0  0  0  0
    5.7750  -32.6200  -30.0940 C   0  0  0  0  0  0  0  0  0  0  0  0
   10.4090  -32.5110  -29.6830 N   0  0  0  0  0  0  0  0  0  0  0  0
    5.7390  -31.8710  -32.4310 C   0  0  0  0  0  0  0  0  0  0  0  0
    4.3340  -35.7170  -35.7700 C   0  0  0  0  0  0  0  0  0  0  0  0
    6.8750  -32.4040  -31.3140 C   0  0  0  0  0  0  0  0  0  0  0  0
    8.1700  -36.1970  -35.8320 C   0  0  0  0  0  0  0  0  0  0  0  0
    9.3030  -36.3410  -33.6880 C   0  0  0  0  0  0  0  0  0  0  0  0
   12.2970  -33.5240  -32.4970 C   0  0  0  0  0  0  0  0  0  0  0  0
    6.9020  -35.7170  -36.5180 C   0  0  0  0  0  0  0  0  0  0  0  0
    6.4600  -33.7550  -31.9560 O   0  0  0  0  0  0  0  0  0  0  0  0
  1 14  1  0
  1  6  1  0
  2 18  1  0
  4 16  1  0
  4 27  1  0
  6  7  1  0
  6 12  1  0
  8 33  1  0
  8  3  1  0
  8 14  1  0
 10 31  1  0
 10 11  2  0
 12 32  1  0
 12 39  1  0
 12 34  1  0
 13  1  1  0
 13 36  1  0
 15 23  1  0
 15 31  1  0
 17 24  1  0
 18  9  1  0
 20 36  2  0
 21 15  1  0
 22 17  1  0
 22  8  1  0
 22 24  1  0
 24 29  1  0
 25  9  1  0
 25 30  1  0
 26 10  1  0
 27 26  1  0
 28 37  1  0
 28  4  1  0
 29  2  1  0
 34  5  1  0
 34 30  1  0
 35 19  1  0
 35 13  1  0
 36 16  1  0
 37 21  1  0
 38 35  1  0
 38  3  1  0
 39 34  1  0
M  END
$$$$

     RDKit          3D

  3  2  0  0  0  0  0  0  0  0999 V2000
    8.2700  -34.0650  -33.3240 C   0  0  0  0  0  0  0  0  0  0  0  0
    8.1260  -35.4540  -35.2250 C   0  0  0  0  0  0  0  0  0  0  0  0
    7.3550  -34.7230  -34.1190 C   0  0  0  0  0  0  0  0  0  0  0  0
  2  3  1  0
  3  1  1  0
M  END
$$$$

     RDKit          3D

 32 34  0  0  0  0  0  0  0  0999 V2000
   10.3040  -31.8140  -29.1310 C   0  0  0  0  0  0  0  0  0  0  0  0
    7.9200  -32.3380  -31.5870 C   0  0  0  0  0  0  0  0  0  0  0  0
    5.9800  -30.7690  -31.0370 O   0  0  0  0  0  0  0  0  0  0  0  0
    5.2440  -35.1800  -35.8100 C   0  0  0  0  0  0  0  0  0  0  0  0
    8.3530  -31.7390  -30.6910 C   0  0  0  0  0  0  0  0  0  0  0  0
   11.6190  -33.3560  -31.3170 C   0  0  0  0  0  0  0  0  0  0  0  0
   10.2160  -35.5340  -33.3880 C   0  0  0  0  0  0  0  0  0  0  0  0
    4.9920  -35.3620  -36.6710 C   0  0  0  0  0  0  0  0  0  0  0  0
    8.8520  -32.1130  -29.4690 C   0  0  0  0  0  0  0  0  0  0  0  0
    9.1470  -33.2180  -32.0970 C   0  0  0  0  0  0  0  0  0  0  0  0
    6.9570  -32.4500  -32.3870 C   0  0  0  0  0  0  0  0  0  0  0  0
    6.6520  -35.2190  -34.9750 C   0  0  0  0  0  0  0  0  0  0  0  0
    7.1500  -35.3550  -37.6180 C   0  0  0  0  0  0  0  0  0  0  0  0
   10.6720  -33.6280  -32.1460 N   0  0  0  0  0  0  0  0  0  0  0  0
   11.3040  -32.5520  -30.0590 C   0  0  0  0  0  0  0  0  0  0  0  0
    6.0010  -35.4240  -37.1660 C   0  0  0  0  0  0  0  0  0  0  0  0
    3.6030  -35.5530  -37.1290 C   0  0  0  0  0  0  0  0  0  0  0  0
    8.6980  -35.4440  -33.5950 C   0  0  0  0  0  0  0  0  0  0  0  0
    7.3070  -33.9250  -33.5730 C   0  0  0  0  0  0  0  0  0  0  0  0
    5.8680  -31.6590  -32.0730 C   0  0  0  0  0  0  0  0  0  0  0  0
   10.6080  -36.5260  -33.9550 O   0  0  0  0  0  0  0  0  0  0  0  0
    7.9180  -35.6940  -36.6760 C   0  0  0  0  0  0  0  0  0  0  0  0
    6.5330  -33.2020  -33.2680 N   0  0  0  0  0  0  0  0  0  0  0  0
    8.4360  -34.0720  -33.1150 C   0  0  0  0  0  0  0  0  0  0  0  0
    7.5300  -35.7170  -35.5610 C   0  0  0  0  0  0  0  0  0  0  0  0
   10.1720  -37.8500  -33.6740 C   0  0  0  0  0  0  0  0  0  0  0  0
    3.1990  -35.3240  -37.9700 O   0  0  0  0  0  0  0  0  0  0  0  0
   12.5430  -32.8750  -29.2320 O   0  0  0  0  0  0  0  0  0  0  0  0
   11.9650  -34.3310  -33.6900 O   0  0  0  0  0  0  0  0  0  0  0  0
    3.1930  -35.7590  -36.3910 F   0  0  0  0  0  0  0  0  0  0  0  0
    7.9090  -35.9910  -34.5880 N   0  0  0  0  0  0  0  0  0  0  0  0
   11.0830  -34.4790  -33.0260 C   0  0  0  0  0  0  0  0  0  0  0  0
  2  5  1  0
  5  9  1  0
  6 15  2  3
  7 21  1  0
  7 32  1  0
  8  4  2  0
  9  1  1  0
 10  2  4  0
 11 20  1  0
 11  2  4  0
 13 16  1  0
 13 22  1  0
 14 10  1  0
 14  6  1  0
 15 28  1  0
 15  1  1  0
 16  8  1  0
 17  8  1  0
 17 30  1  0
 18 31  1  0
 18  7  1  0
 18 24  1  0
 19 23  4  0
 19 24  4  0
 20  3  1  0
 21 26  1  0
 22 25  1  0
 23 11  4  0
 24 10  4  0
 25 12  2  0
 25 31  1  0
 27 17  2  0
 29 32  2  0
 32 14  1  0
M  END
$$$$

     RDKit          3D

 36 44  0  0  0  0  0  0  0  0999 V2000
    4.3390  -33.9190  -34.6330 C   0  0  0  0  0  0  0  0  0  0  0  0
    3.4730  -33.0580  -33.1720 C   0  0  0  0  0  0  0  0  0  0  0  0
    9.7480  -37.2190  -34.3430 C   0  0  0  0  0  0  0  0  0  0  0  0
    2.6960  -32.3790  -31.9900 C   0  0  0  0  0  0  0  0  0  0  0  0
    8.5740  -32.7290  -31.7900 C   0  0  0  0  0  0  0  0  0  0  0  0
   10.5600  -34.4460  -32.7240 C   0  0  0  0  0  0  0  0  0  0  0  0
    8.9070  -32.5880  -32.9020 C   0  0  0  0  0  0  0  0  0  0  0  0
    8.4470  -35.5310  -33.9200 N   0  0  0  0  0  0  0  0  0  0  0  0
    4.8750  -34.8760  -35.1620 N   0  0  0  0  0  0  0  0  0  0  0  0
   12.1940  -35.3590  -33.7690 C   0  0  0  0  0  0  0  0  0  0  0  0
    6.8220  -35.8970  -35.3740 C   0  0  0  0  0  0  0  0  0  0  0  0
    2.9870  -33.5630  -34.4110 C   0  0  0  0  0  0  0  0  0  0  0  0
    5.6640  -31.9920  -30.8860 C   0  0  0  0  0  0  0  0  0  0  0  0
   12.3830  -32.7190  -32.5220 C   0  0  0  0  0  0  0  0  0  0  0  0
   10.5240  -33.0100  -30.9170 C   0  0  0  0  0  0  0  0  0  0  0  0
    4.4740  -32.0920  -31.4740 C   0  0  0  0  0  0  0  0  0  0  0  0
    4.4930  -32.7030  -32.7630 N   0  0  0  0  0  0  0  0  0  0  0  0
   11.4040  -33.3540  -32.1390 C   0  0  0  0  0  0  0  0  0  0  0  0
    4.7300  -36.3130  -36.4300 N   0  0  0  0  0  0  0  0  0  0  0  0
   12.9620  -34.9430  -34.3000 O   0  0  0  0  0  0  0  0  0  0  0  0
   12.5870  -34.0010  -31.8640 C   0  0  0  0  0  0  0  0  0  0  0  0
    5.2540  -35.6460  -35.8180 C   0  0  0  0  0  0  0  0  0  0  0  0
    8.1760  -33.3600  -32.8730 N   0  0  0  0  0  0  0  0  0  0  0  0
    3.5930  -32.2310  -31.1260 C   0  0  0  0  0  0  0  0  0  0  0  0
    9.3080  -33.2650  -30.9980 O   0  0  0  0  0  0  0  0  0  0  0  0
   11.9800  -36.4500  -34.3960 C   0  0  0  0  0  0  0  0  0  0  0  0
    7.3640  -35.3000  -34.6310 C   0  0  0  0  0  0  0  0  0  0  0  0
   11.0380  -37.3020  -34.4730 C   0  0  0  0  0  0  0  0  0  0  0  0
   10.3260  -35.3810  -33.5970 C   0  0  0  0  0  0  0  0  0  0  0  0
   11.1720  -34.0360  -30.0170 C   0  0  0  0  0  0  0  0  0  0  0  0
   11.2670  -35.3190  -33.9940 C   0  0  0  0  0  0  0  0  0  0  0  0
    9.5610  -36.2290  -34.1250 C   0  0  0  0  0  0  0  0  0  0  0  0
    5.1260  -33.2450  -33.5870 C   0  0  0  0  0  0  0  0  0  0  0  0
    7.9070  -34.5110  -33.4830 C   0  0  0  0  0  0  0  0  0  0  0  0
    7.1620  -31.8840  -31.3810 C   0  0  0  0  0  0  0  0  0  0  0  0
   12.6610  -33.8290  -30.2900 C   0  0  0  0  0  0  0  0  0  0  0  0
  1 12  1  0
  1 33  1  0
  2 12  1  0
  2 17  1  0
  2  4  1  0
  3 32  1  0
  4 24  1  0
  5  7  1  0
  5 35  1  0
  5 25  1  0
  6 18  1  0
  7 23  1  0
  8 34  1  0
  9  1  1  0
 11 27  1  0
 14 18  1  0
 14 21  1  0
 15 30  1  0
 16 24  1  0
 16 13  1  0
 17 16  1  0
 18 21  1  0
 18 15  1  0
 19 22  2  0
 20 10  1  0
 21 36  1  0
 22 11  1  0
 22  9  1  0
 23  5  1  0
 25 15  1  0
 26 10  1  0
 27  8  1  0
 27 34  1  0
 28 26  1  0
 28  3  1  0
 29  6  2  3
 31 10  1  0
 31 29  1  0
 32  8  1  0
 32 29  1  0
 33 17  1  0
 34 23  1  0
 35 13  1  0
 36 30  1  0
M  END
$$$$

     RDKit          3D

  7  7  0  0  0  0  0  0  0  0999 V2000
    9.0810  -35.8590  -34.1190 O   0  0  0  0  0  0  0  0  0  0  0  0
    8.0910  -33.3760  -32.5660 C   0  0  0  0  0  0  0  0  0  0  0  0
   10.2030  -34.8790  -32.2090 C   0  0  0  0  0  0  0  0  0  0  0  0
    9.6460  -33.4410  -32.3510 C   0  0  0  0  0  0  0  0  0  0  0  0
    7.6810  -35.4900  -33.9680 C   0  0  0  0  0  0  0  0  0  0  0  0
    7.6440  -33.9580  -33.8580 C   0  0  0  0  0  0  0  0  0  0  0  0
    9.6310  -36.1570  -32.8780 C   0  0  0  0  0  0  0  0  0  0  0  0
  1  5  1  0
  1  7  1  0
  2  4  1  0
  4  3  1  0
  5  6  1  0
  6  2  1  0
  7  3  1  0
M  END
$$$$

     RDKit          3D

 12 14  0  0  0  0  0  0  0  0999 V2000
    7.0210  -32.8430  -32.7620 C   0  0  0  0  0  0  0  0  0  0  0  0
    5.9720  -32.4930  -33.0420 C   0  0  0  0  0  0  0  0  0  0  0  0
    6.9610  -34.0730  -33.5420 C   0  0  0  0  0  0  0  0  0  0  0  0
    8.4840  -35.4190  -33.5470 C   0  0  0  0  0  0  0  0  0  0  0  0
    8.3540  -32.8800  -32.0840 C   0  0  0  0  0  0  0  0  0  0  0  0
    7.6750  -35.1090  -35.0470 C   0  0  0  0  0  0  0  0  0  0  0  0
    8.4790  -34.9560  -34.4200 C   0  0  0  0  0  0  0  0  0  0  0  0
    8.1680  -34.6550  -33.6600 C   0  0  0  0  0  0  0  0  0  0  0  0
    9.0740  -36.7070  -34.2110 C   0  0  0  0  0  0  0  0  0  0  0  0
    8.8020  -36.0680  -34.3480 C   0  0  0  0  0  0  0  0  0  0  0  0
    6.8320  -34.1870  -34.4150 C   0  0  0  0  0  0  0  0  0  0  0  0
    8.9780  -33.6140  -32.6320 C   0  0  0  0  0  0  0  0  0  0  0  0
  1  5  1  0
  2  1  2  0
  3  1  1  0
  6  7  1  0
  6 11  1  0
  7 10  1  0
  7  8  1  0
  7  4  1  0
  8  4  1  0
  8  3  1  0
 10  9  1  0
 10  4  1  0
 11  3  1  0
 12  5  1  0
M  END
$$$$

     RDKit          3D

  5  4  0  0  0  0  0  0  0  0999 V2000
    8.3540  -35.1070  -33.6410 C   0  0  0  0  0  0  0  0  0  0  0  0
    9.2760  -34.3540  -33.0180 C   0  0  0  0  0  0  0  0  0  0  0  0
    9.5930  -33.4750  -32.6880 N   0  0  0  0  0  0  0  0  0  0  0  0
    7.2170  -34.5480  -33.9790 C   0  0  0  0  0  0  0  0  0  0  0  0
    6.6390  -33.4420  -33.5000 C   0  0  0  0  0  0  0  0  0  0  0  0
  1  2  1  0
  2  3  2  0
  4  1  1  0
  4  5  2  0
M  END
$$$$

     RDKit          3D

 26 31  0  0  0  0  0  0  0  0999 V2000
    8.8250  -35.7030  -33.7510 C   0  0  0  0  0  0  0  0  0  0  0  0
    7.4790  -33.9900  -33.5880 N   0  0  0  0  0  0  0  0  0  0  0  0
    3.5300  -32.4590  -33.1270 C   0  0  0  0  0  0  0  0  0  0  0  0
    8.2160  -32.8740  -32.0320 C   0  0  0  0  0  0  0  0  0  0  0  0
   11.6300  -33.1090  -31.6840 C   0  0  0  0  0  0  0  0  0  0  0  0
   11.7990  -33.3930  -29.8170 C   0  0  0  0  0  0  0  0  0  0  0  0
   10.2240  -34.5040  -32.2540 C   0  0  0  0  0  0  0  0  0  0  0  0
    5.2090  -31.7070  -31.2650 C   0  0  0  0  0  0  0  0  0  0  0  0
   10.7390  -34.6630  -30.3540 C   0  0  0  0  0  0  0  0  0  0  0  0
    2.7900  -33.6190  -35.0830 O   0  0  0  0  0  0  0  0  0  0  0  0
   10.6800  -35.5220  -33.1100 C   0  0  0  0  0  0  0  0  0  0  0  0
    4.8710  -32.9620  -33.1910 C   0  0  0  0  0  0  0  0  0  0  0  0
    9.8960  -36.1880  -33.6650 C   0  0  0  0  0  0  0  0  0  0  0  0
    5.2960  -33.9140  -34.2150 C   0  0  0  0  0  0  0  0  0  0  0  0
   12.1310  -32.5400  -31.7560 C   0  0  0  0  0  0  0  0  0  0  0  0
   11.9890  -33.3800  -32.3260 C   0  0  0  0  0  0  0  0  0  0  0  0
    2.4930  -32.8400  -34.1170 C   0  0  0  0  0  0  0  0  0  0  0  0
    7.0520  -32.9990  -32.7550 C   0  0  0  0  0  0  0  0  0  0  0  0
    8.6550  -34.3350  -33.5300 C   0  0  0  0  0  0  0  0  0  0  0  0
   11.2680  -33.8940  -31.7490 C   0  0  0  0  0  0  0  0  0  0  0  0
    3.9800  -31.3270  -31.2010 C   0  0  0  0  0  0  0  0  0  0  0  0
    3.0820  -31.6030  -32.1710 C   0  0  0  0  0  0  0  0  0  0  0  0
   11.5290  -33.8840  -29.5410 C   0  0  0  0  0  0  0  0  0  0  0  0
    9.2870  -33.7880  -32.6040 C   0  0  0  0  0  0  0  0  0  0  0  0
    1.2970  -32.4540  -34.0030 O   0  0  0  0  0  0  0  0  0  0  0  0
    5.6620  -32.3860  -32.4850 C   0  0  0  0  0  0  0  0  0  0  0  0
  1 13  1  0
  1 19  1  0
  2 19  2  0
  2 18  1  0
  3 22  1  0
  5 15  1  0
  5  6  1  0
  6 23  2  0
  7 11  1  0
  7 20  1  0
  8 21  2  0
  9 23  1  0
 10 17  2  0
 12  3  2  0
 12 26  1  0
 13 11  1  0
 14 12  1  0
 16 15  1  0
 16 20  1  0
 16  5  1  0
 17 25  1  0
 17  3  1  0
 18 26  1  0
 18  4  1  0
 19 24  1  0
 20  5  1  0
 20  9  1  0
 22 21  1  0
 24  7  1  0
 24  4  2  0
 26  8  1  0
M  END
$$$$
