
     RDKit          3D

 26 31  0  0  0  0  0  0  0  0999 V2000
    6.9930  -33.9530  -34.0360 C   0  0  1  0  0  0  0  0  0  0  0  0
    4.7000  -33.8960  -34.7270 O   0  0  0  0  0  0  0  0  0  0  0  0
    7.4640  -31.9300  -31.2250 C   0  0  0  0  0  0  0  0  0  0  0  0
    6.2270  -31.6110  -31.5490 C   0  0  0  0  0  0  0  0  0  0  0  0
   11.8980  -33.5340  -30.2590 C   0  0  0  0  0  0  0  0  0  0  0  0
    5.9860  -32.5390  -32.6550 N   0  0  0  0  0  0  0  0  0  0  0  0
    8.3570  -34.4390  -33.9020 C   0  0  0  0  0  0  0  0  0  0  0  0
   10.4850  -35.6180  -33.6660 C   0  0  0  0  0  0  0  0  0  0  0  0
    9.8820  -34.7130  -33.3380 C   0  0  1  0  0  0  0  0  0  0  0  0
    9.2480  -33.0310  -31.9290 C   0  0  0  0  0  0  0  0  0  0  0  0
   11.4140  -34.0650  -31.9740 C   0  0  2  0  0  0  0  0  0  0  0  0
    3.6620  -36.0610  -36.7070 C   0  0  0  0  0  0  0  0  0  0  0  0
   10.1120  -32.9230  -30.8650 C   0  0  0  0  0  0  0  0  0  0  0  0
    4.9920  -35.4280  -36.4170 N   0  0  0  0  0  0  0  0  0  0  0  0
    6.6190  -34.9080  -34.8190 C   0  0  1  0  0  0  0  0  0  0  0  0
   10.4870  -33.8530  -32.8580 C   0  0  2  0  0  0  0  0  0  0  0  0
    7.0300  -33.2580  -33.0880 C   0  0  0  0  0  0  0  0  0  0  0  0
    9.5670  -34.7430  -33.9930 S   0  0  0  0  0  0  0  0  0  0  0  0
    7.9170  -35.9370  -34.4910 S   0  0  0  0  0  0  0  0  0  0  0  0
   11.3900  -34.9610  -32.8220 C   0  0  0  0  0  0  0  0  0  0  0  0
    8.1670  -31.8620  -30.3720 F   0  0  0  0  0  0  0  0  0  0  0  0
    5.4750  -34.8010  -35.3030 C   0  0  0  0  0  0  0  0  0  0  0  0
    9.3080  -33.5200  -32.8570 C   0  0  1  0  0  0  0  0  0  0  0  0
    8.0780  -32.8840  -32.4890 C   0  0  0  0  0  0  0  0  0  0  0  0
   10.8810  -34.0180  -33.5520 C   0  0  2  0  0  0  0  0  0  0  0  0
   11.4000  -33.3140  -31.1220 C   0  0  1  0  0  0  0  0  0  0  0  0
  1  7  1  0
  1 17  1  1
  3 21  1  0
  4  3  1  0
  6  4  1  0
  9  8  1  6
 16  9  1  1
 10 13  1  0
 11 20  1  1
 11 26  1  0
 12 14  1  0
 14 22  1  0
 15 22  1  1
 15 19  1  0
 15  1  1  0
 16 23  1  0
 16 11  1  0
 17  6  1  0
 17 24  2  0
 18  7  1  0
 18 25  1  0
 18  9  1  0
 18 23  1  0
 19 18  1  0
 22  2  2  0
 23 10  1  1
 24 10  2  0
 25 16  1  0
 25 20  1  1
 26 13  1  0
 26  5  1  1
M  END
$$$$

     RDKit          3D

 17 20  0  0  0  0  0  0  0  0999 V2000
    5.4980  -34.2800  -35.9880 C   0  0  0  0  0  0  0  0  0  0  0  0
    7.5100  -35.2260  -35.3600 C   0  0  1  0  0  0  0  0  0  0  0  0
    7.7610  -33.7330  -33.2280 N   0  0  0  0  0  0  0  0  0  0  0  0
    6.5580  -31.6050  -31.4550 O   0  0  0  0  0  0  0  0  0  0  0  0
    9.5700  -33.4570  -32.2170 C   0  0  0  0  0  0  0  0  0  0  0  0
    7.6940  -34.6480  -34.1390 C   0  0  2  0  0  0  0  0  0  0  0  0
    8.3240  -33.1120  -32.2530 C   0  0  0  0  0  0  0  0  0  0  0  0
   10.3490  -33.1260  -31.2140 C   0  0  0  0  0  0  0  0  0  0  0  0
    9.9610  -32.3050  -30.2000 C   0  0  0  0  0  0  0  0  0  0  0  0
    8.6950  -35.4090  -35.6410 C   0  0  0  0  0  0  0  0  0  0  0  0
   10.7460  -31.8970  -29.2780 C   0  0  0  0  0  0  0  0  0  0  0  0
   10.0360  -34.2030  -33.3620 C   0  0  0  0  0  0  0  0  0  0  0  0
    5.8750  -35.1040  -34.6010 C   0  0  0  0  0  0  0  0  0  0  0  0
    7.8050  -32.1520  -31.3640 C   0  0  0  0  0  0  0  0  0  0  0  0
    8.7830  -34.5080  -33.8240 C   0  0  0  0  0  0  0  0  0  0  0  0
    6.6300  -34.8690  -36.3990 O   0  0  0  0  0  0  0  0  0  0  0  0
    8.6220  -31.7460  -30.3550 C   0  0  0  0  0  0  0  0  0  0  0  0
  1 13  1  0
  2 10  1  6
  2 13  1  0
  2  6  1  0
  3  7  1  0
  4 14  1  0
  5  8  2  0
  6 15  1  6
  6  3  1  0
  7  5  1  0
  7 14  2  0
  8  9  1  0
  9 11  1  0
 12  5  1  0
 14 17  1  0
 15 12  1  0
 15  3  1  0
 16  1  1  0
 16  2  1  0
 17  9  2  0
M  END
$$$$

     RDKit          3D

 36 39  0  0  0  0  0  0  0  0999 V2000
    7.7200  -35.7950  -36.3210 C   0  0  0  0  0  0  0  0  0  0  0  0
    6.9550  -34.1960  -34.1270 C   0  0  0  0  0  0  0  0  0  0  0  0
   10.5480  -36.3270  -34.6570 O   0  0  0  0  0  0  0  0  0  0  0  0
   10.3470  -35.5990  -33.7950 C   0  0  0  0  0  0  0  0  0  0  0  0
   13.5180  -32.0890  -27.9150 F   0  0  0  0  0  0  0  0  0  0  0  0
    8.9200  -33.8750  -32.5220 C   0  0  0  0  0  0  0  0  0  0  0  0
   11.8060  -31.5450  -28.6860 F   0  0  0  0  0  0  0  0  0  0  0  0
    8.6830  -36.1640  -36.9640 O   0  0  0  0  0  0  0  0  0  0  0  0
    5.6950  -34.3920  -35.0390 C   0  0  0  0  0  0  0  0  0  0  0  0
    4.9590  -33.5830  -39.1280 C   0  0  0  0  0  0  0  0  0  0  0  0
    9.6090  -32.5760  -30.0100 C   0  0  0  0  0  0  0  0  0  0  0  0
   11.3550  -34.8320  -33.5220 N   0  0  0  0  0  0  0  0  0  0  0  0
    4.2700  -33.3970  -40.3540 C   0  0  0  0  0  0  0  0  0  0  0  0
    7.7470  -36.2340  -34.8300 C   0  0  0  0  0  0  0  0  0  0  0  0
    2.8940  -33.7910  -40.3560 C   0  0  0  0  0  0  0  0  0  0  0  0
    7.8700  -33.1710  -32.5120 C   0  0  0  0  0  0  0  0  0  0  0  0
   11.4960  -34.0300  -32.5470 C   0  0  0  0  0  0  0  0  0  0  0  0
   10.3310  -33.7600  -31.7920 C   0  0  1  0  0  0  0  0  0  0  0  0
   10.4910  -33.3400  -30.5660 C   0  0  0  0  0  0  0  0  0  0  0  0
   12.2090  -34.7100  -34.2030 O   0  0  0  0  0  0  0  0  0  0  0  0
    7.8270  -35.0380  -34.3830 C   0  0  2  0  0  0  0  0  0  0  0  0
    8.9410  -35.1160  -33.4260 C   0  0  1  0  0  0  0  0  0  0  0  0
    8.7930  -32.0130  -30.4580 C   0  0  0  0  0  0  0  0  0  0  0  0
   12.4120  -34.0540  -31.7420 O   0  0  0  0  0  0  0  0  0  0  0  0
    5.6130  -34.6950  -36.4230 C   0  0  0  0  0  0  0  0  0  0  0  0
    4.7260  -33.7760  -34.3550 C   0  0  0  0  0  0  0  0  0  0  0  0
    4.4860  -34.5770  -36.9340 N   0  0  0  0  0  0  0  0  0  0  0  0
    8.1080  -32.2300  -31.6360 C   0  0  0  0  0  0  0  0  0  0  0  0
   12.5270  -33.6520  -29.3240 C   0  0  0  0  0  0  0  0  0  0  0  0
   11.5760  -34.1740  -30.0700 O   0  0  0  0  0  0  0  0  0  0  0  0
    4.2710  -34.0370  -38.1110 C   0  0  0  0  0  0  0  0  0  0  0  0
   11.6590  -32.8160  -27.3310 F   0  0  0  0  0  0  0  0  0  0  0  0
   12.4640  -32.2620  -28.1940 C   0  0  1  0  0  0  0  0  0  0  0  0
    2.9240  -34.3440  -38.2180 N   0  0  0  0  0  0  0  0  0  0  0  0
    2.2860  -34.1600  -39.3490 C   0  0  0  0  0  0  0  0  0  0  0  0
    6.7030  -35.1230  -37.1700 C   0  0  0  0  0  0  0  0  0  0  0  0
  1 14  1  0
  3  4  2  0
  4 12  1  0
  6 16  1  0
  6 18  1  0
 33  7  1  6
  8  1  2  0
  9 26  1  0
  9  2  1  0
 10 31  2  0
 12 17  1  0
 13 10  1  0
 15 13  2  0
 15 35  1  0
 16 28  1  0
 17 24  2  0
 18 17  1  6
 18 19  1  0
 19 30  1  0
 19 11  2  0
 20 12  1  0
 21 14  1  1
 21  2  1  0
 21 22  1  0
 22  4  1  0
 22  6  1  6
 23 11  1  0
 25  9  2  0
 27 25  1  0
 28 23  1  0
 29 33  1  0
 30 29  1  0
 31 27  1  0
 33  5  1  0
 33 32  1  0
 34 31  1  0
 35 34  2  0
 36 25  1  0
 36  1  1  0
M  END
$$$$

     RDKit          3D

 15 16  0  0  0  0  0  0  0  0999 V2000
    6.6880  -34.1830  -33.9220 C   0  0  0  0  0  0  0  0  0  0  0  0
    4.3450  -32.6830  -33.5090 C   0  0  0  0  0  0  0  0  0  0  0  0
    7.9270  -32.7870  -32.4970 C   0  0  0  0  0  0  0  0  0  0  0  0
    5.4320  -34.5770  -34.5980 C   0  0  0  0  0  0  0  0  0  0  0  0
   10.0080  -36.1530  -33.8380 O   0  0  0  0  0  0  0  0  0  0  0  0
    9.0190  -33.5490  -32.5810 C   0  0  0  0  0  0  0  0  0  0  0  0
   10.0240  -33.1120  -31.7680 O   0  0  0  0  0  0  0  0  0  0  0  0
    4.2940  -33.7580  -34.3790 C   0  0  0  0  0  0  0  0  0  0  0  0
    6.6700  -33.1070  -33.1000 C   0  0  0  0  0  0  0  0  0  0  0  0
   10.1190  -35.0750  -33.6460 N   0  0  0  0  0  0  0  0  0  0  0  0
    7.8680  -34.8630  -34.0690 C   0  0  0  0  0  0  0  0  0  0  0  0
    9.0260  -34.5350  -33.4100 C   0  0  0  0  0  0  0  0  0  0  0  0
    8.0650  -31.8070  -31.7100 O   0  0  0  0  0  0  0  0  0  0  0  0
   11.2740  -34.5660  -33.6790 O   0  0  0  0  0  0  0  0  0  0  0  0
    5.5700  -32.4340  -32.8690 C   0  0  0  0  0  0  0  0  0  0  0  0
  1  9  2  0
  2 15  2  0
  3 13  2  0
  4  8  2  0
  4  1  1  0
  5 10  1  0
  6  3  1  0
  6  7  1  0
  8  2  1  0
  9 15  1  0
  9  3  1  0
 10 12  1  0
 11  1  1  0
 11 12  1  0
 12  6  2  0
 14 10  2  0
M  CHG  2   5  -1  10   1
M  END
$$$$

     RDKit          3D

 16 17  0  0  0  0  0  0  0  0999 V2000
    4.0520  -32.7880  -33.8620 C   0  0  0  0  0  0  0  0  0  0  0  0
    9.0410  -35.8870  -33.6340 C   0  0  0  0  0  0  0  0  0  0  0  0
    2.5590  -33.9970  -35.5610 O   0  0  0  0  0  0  0  0  0  0  0  0
    5.3520  -32.8060  -33.3240 C   0  0  0  0  0  0  0  0  0  0  0  0
    7.2700  -33.7130  -33.2180 C   0  0  0  0  0  0  0  0  0  0  0  0
    6.2650  -33.7370  -33.5840 C   0  0  0  0  0  0  0  0  0  0  0  0
    4.9870  -34.4000  -35.1100 C   0  0  0  0  0  0  0  0  0  0  0  0
    4.7270  -34.9980  -36.2300 O   0  0  0  0  0  0  0  0  0  0  0  0
    5.6840  -31.7520  -32.6200 O   0  0  0  0  0  0  0  0  0  0  0  0
    3.9240  -33.6820  -34.7370 C   0  0  0  0  0  0  0  0  0  0  0  0
    8.3850  -34.0050  -33.3330 C   0  0  0  0  0  0  0  0  0  0  0  0
    7.2820  -35.2380  -34.9360 C   0  0  0  0  0  0  0  0  0  0  0  0
    8.1700  -35.7270  -34.4840 C   0  0  0  0  0  0  0  0  0  0  0  0
    6.3880  -34.4740  -34.5490 C   0  0  0  0  0  0  0  0  0  0  0  0
    5.1750  -31.6470  -31.2700 C   0  0  0  0  0  0  0  0  0  0  0  0
    8.5740  -34.6740  -33.0420 C   0  0  0  0  0  0  0  0  0  0  0  0
  1  4  2  0
  2 16  1  0
  3 10  1  0
  4  9  1  0
  6  4  1  0
  6  5  1  0
  7 10  2  0
  7 14  1  0
  8  7  1  0
  9 15  1  0
 10  1  1  0
 11  5  1  0
 11 16  1  0
 12 14  1  0
 12 13  1  0
 13  2  1  0
 14  6  2  0
M  END
$$$$

     RDKit          3D

 33 38  0  0  0  0  0  0  0  0999 V2000
    9.3950  -33.2890  -30.9460 C   0  0  1  0  0  0  0  0  0  0  0  0
    7.1460  -34.8840  -33.8330 C   0  0  0  0  0  0  0  0  0  0  0  0
    8.6720  -32.4060  -30.2880 C   0  0  0  0  0  0  0  0  0  0  0  0
   10.7850  -32.6350  -28.9870 O   0  0  0  0  0  0  0  0  0  0  0  0
    9.5330  -34.9570  -33.0470 C   0  0  1  0  0  0  0  0  0  0  0  0
    5.0510  -33.6600  -33.5040 N   0  0  0  0  0  0  0  0  0  0  0  0
    4.2690  -34.6330  -36.5270 C   0  0  0  0  0  0  0  0  0  0  0  0
    8.5530  -35.1890  -33.7720 C   0  0  1  0  0  0  0  0  0  0  0  0
    8.3600  -32.4330  -32.7690 C   0  0  0  0  0  0  0  0  0  0  0  0
    9.0770  -33.4830  -32.2360 C   0  0  0  0  0  0  0  0  0  0  0  0
   11.1530  -34.7930  -32.4970 C   0  0  1  0  0  0  0  0  0  0  0  0
    6.4750  -33.4900  -33.7330 C   0  0  1  0  0  0  0  0  0  0  0  0
    5.2120  -34.8540  -35.6690 C   0  0  0  0  0  0  0  0  0  0  0  0
    4.2490  -31.6690  -30.4340 C   0  0  0  0  0  0  0  0  0  0  0  0
    7.1740  -32.0560  -30.4290 C   0  0  0  0  0  0  0  0  0  0  0  0
   12.7810  -33.3000  -32.6250 O   0  0  0  0  0  0  0  0  0  0  0  0
    6.7310  -34.8580  -37.1850 C   0  0  0  0  0  0  0  0  0  0  0  0
   10.6920  -33.5180  -29.9610 C   0  0  2  0  0  0  0  0  0  0  0  0
    3.0980  -33.1810  -32.6060 O   0  0  0  0  0  0  0  0  0  0  0  0
    7.0790  -32.7550  -32.5750 C   0  0  0  0  0  0  0  0  0  0  0  0
    5.8700  -34.7140  -37.9130 C   0  0  0  0  0  0  0  0  0  0  0  0
    4.6250  -34.5360  -37.6710 C   0  0  0  0  0  0  0  0  0  0  0  0
    6.4380  -35.1890  -35.9520 C   0  0  0  0  0  0  0  0  0  0  0  0
    4.3130  -33.1170  -32.4610 C   0  0  0  0  0  0  0  0  0  0  0  0
    4.9910  -32.4020  -31.3930 N   0  0  0  0  0  0  0  0  0  0  0  0
    8.4660  -36.3610  -34.4200 C   0  0  0  0  0  0  0  0  0  0  0  0
   10.7060  -35.7590  -33.6580 C   0  0  2  0  0  0  0  0  0  0  0  0
   11.3290  -35.0190  -34.8760 C   0  0  0  0  0  0  0  0  0  0  0  0
   10.9040  -36.9240  -33.7150 O   0  0  0  0  0  0  0  0  0  0  0  0
   11.9230  -33.7330  -31.9970 C   0  0  0  0  0  0  0  0  0  0  0  0
    7.7020  -36.3090  -35.7100 C   0  0  0  0  0  0  0  0  0  0  0  0
   11.8940  -33.2890  -30.7080 O   0  0  0  0  0  0  0  0  0  0  0  0
    6.3830  -32.4160  -31.4400 C   0  0  0  0  0  0  0  0  0  0  0  0
  1  3  1  6
  1 18  1  0
  2  8  1  0
 12  2  1  1
  5 11  1  0
  5 10  1  1
  6 24  1  0
  7 13  2  0
  8  5  1  0
  9 20  1  0
  9 10  1  0
 10  1  1  0
 11 30  1  6
 12  6  1  0
 12 20  1  0
 15  3  2  0
 16 30  2  0
 17 23  2  0
 18  4  1  1
 19 24  2  0
 20 33  1  0
 21 22  2  0
 21 17  1  0
 22  7  1  0
 23 31  1  0
 23 13  1  0
 24 25  1  0
 25 14  1  0
  8 26  1  1
 27  5  1  0
 27 11  1  0
 27 28  1  6
 29 27  1  0
 30 32  1  0
 31 26  1  0
 32 18  1  0
 33 25  1  0
 33 15  1  0
M  END
$$$$

     RDKit          3D

 16 18  0  0  0  0  0  0  0  0999 V2000
    6.8800  -35.3270  -35.7560 C   0  0  0  0  0  0  0  0  0  0  0  0
   11.2610  -33.4580  -31.2300 C   0  0  0  0  0  0  0  0  0  0  0  0
    7.7970  -32.3280  -31.2880 O   0  0  0  0  0  0  0  0  0  0  0  0
    6.9590  -31.6850  -32.3210 C   0  0  0  0  0  0  0  0  0  0  0  0
    9.1530  -35.4260  -35.2020 O   0  0  0  0  0  0  0  0  0  0  0  0
    7.9500  -34.9830  -34.9740 C   0  0  0  0  0  0  0  0  0  0  0  0
    8.9170  -32.9730  -31.7220 C   0  0  0  0  0  0  0  0  0  0  0  0
    6.3430  -33.6120  -33.6020 C   0  0  0  0  0  0  0  0  0  0  0  0
    5.5860  -34.9080  -35.4840 C   0  0  0  0  0  0  0  0  0  0  0  0
    5.3120  -34.0730  -34.4110 C   0  0  0  0  0  0  0  0  0  0  0  0
    8.9800  -33.7670  -32.9580 C   0  0  0  0  0  0  0  0  0  0  0  0
   10.2600  -34.2820  -33.2850 C   0  0  0  0  0  0  0  0  0  0  0  0
    9.9630  -32.9370  -30.8740 C   0  0  0  0  0  0  0  0  0  0  0  0
    7.7680  -34.1210  -33.7810 C   0  0  0  0  0  0  0  0  0  0  0  0
   11.3880  -34.1380  -32.4270 C   0  0  0  0  0  0  0  0  0  0  0  0
    5.9980  -32.6570  -32.6720 O   0  0  0  0  0  0  0  0  0  0  0  0
  1  9  2  0
  1  6  1  0
  2 13  2  0
  4  3  1  0
  5  6  1  0
  6 14  2  0
  7  3  1  0
  7 13  1  0
  8 16  1  0
  9 10  1  0
 10  8  2  0
 11  7  2  0
 12 11  1  0
 12 15  2  0
 14  8  1  0
 14 11  1  0
 15  2  1  0
 16  4  1  0
M  END
$$$$

     RDKit          3D

 25 29  0  0  0  0  0  0  0  0999 V2000
    6.0080  -33.0660  -33.3230 C   0  0  0  0  0  0  0  0  0  0  0  0
    5.5030  -30.9760  -30.7050 O   0  0  0  0  0  0  0  0  0  0  0  0
   10.4910  -32.9180  -30.4970 O   0  0  0  0  0  0  0  0  0  0  0  0
   10.5920  -33.4580  -31.8220 C   0  0  1  0  0  0  0  0  0  0  0  0
    3.2690  -31.5490  -30.0530 C   0  0  0  0  0  0  0  0  0  0  0  0
    9.4410  -33.6840  -32.5520 C   0  0  0  0  0  0  0  0  0  0  0  0
    6.3260  -34.6080  -34.7340 N   0  0  0  0  0  0  0  0  0  0  0  0
    5.4820  -33.7540  -34.3340 C   0  0  0  0  0  0  0  0  0  0  0  0
    8.5050  -35.0540  -34.1830 N   0  0  0  0  0  0  0  0  0  0  0  0
    7.1730  -33.5620  -33.2520 C   0  0  0  0  0  0  0  0  0  0  0  0
    5.6530  -35.2900  -35.9270 C   0  0  0  0  0  0  0  0  0  0  0  0
    4.1410  -30.7110  -30.9470 C   0  0  0  0  0  0  0  0  0  0  0  0
    5.6610  -32.2450  -32.4860 C   0  0  0  0  0  0  0  0  0  0  0  0
    7.7030  -32.0890  -31.4770 C   0  0  0  0  0  0  0  0  0  0  0  0
   11.8500  -33.6740  -32.3670 C   0  0  0  0  0  0  0  0  0  0  0  0
   10.8300  -35.1170  -33.9680 C   0  0  0  0  0  0  0  0  0  0  0  0
    4.1130  -34.7890  -36.1000 C   0  0  0  0  0  0  0  0  0  0  0  0
   11.9570  -34.4940  -33.4820 C   0  0  0  0  0  0  0  0  0  0  0  0
    4.2000  -33.7890  -34.8150 C   0  0  0  0  0  0  0  0  0  0  0  0
   10.9880  -36.1100  -34.7310 O   0  0  0  0  0  0  0  0  0  0  0  0
    8.1090  -33.0620  -32.4180 C   0  0  0  0  0  0  0  0  0  0  0  0
    7.3630  -34.4830  -34.0250 C   0  0  0  0  0  0  0  0  0  0  0  0
    9.5730  -34.6570  -33.5600 C   0  0  0  0  0  0  0  0  0  0  0  0
    6.2830  -31.8220  -31.5030 C   0  0  0  0  0  0  0  0  0  0  0  0
   11.6440  -33.1260  -29.6080 C   0  0  0  0  0  0  0  0  0  0  0  0
  1 10  1  0
  1 13  2  0
  3 25  1  0
  4  3  1  6
  6 21  2  0
  6  4  1  0
  7  8  1  0
  7 22  1  0
  8  1  1  0
  9 22  1  0
  9 23  2  0
 10 21  1  0
 11  7  1  0
 12  2  1  0
 12  5  1  0
 13 24  1  0
 15  4  1  0
 16 23  1  0
 16 18  1  0
 17 11  2  0
 17 19  1  0
 18 15  2  0
 19  8  2  0
 20 16  2  0
 21 14  1  0
 22 10  2  0
 23  6  1  0
 24 14  2  0
 24  2  1  0
M  END
$$$$

     RDKit          3D

 22 26  0  0  0  0  0  0  0  0999 V2000
    8.1220  -34.0750  -33.3110 C   0  0  1  0  0  0  0  0  0  0  0  0
   10.6760  -32.0860  -29.3310 N   0  0  0  0  0  0  0  0  0  0  0  0
    9.9130  -33.8960  -31.9600 C   0  0  1  0  0  0  0  0  0  0  0  0
    7.9540  -33.1360  -32.3420 N   0  0  0  0  0  0  0  0  0  0  0  0
    9.8280  -35.9380  -34.7980 C   0  0  0  0  0  0  0  0  0  0  0  0
    6.2770  -35.7900  -36.0950 C   0  0  0  0  0  0  0  0  0  0  0  0
    4.5430  -34.7710  -36.9200 C   0  0  0  0  0  0  0  0  0  0  0  0
    9.4560  -34.4350  -33.0590 C   0  0  0  0  0  0  0  0  0  0  0  0
    9.8210  -32.3920  -30.1970 C   0  0  0  0  0  0  0  0  0  0  0  0
    5.2110  -34.2050  -34.8920 C   0  0  0  0  0  0  0  0  0  0  0  0
    6.3340  -34.8560  -34.9910 C   0  0  0  0  0  0  0  0  0  0  0  0
    8.6270  -35.6660  -35.2570 C   0  0  0  0  0  0  0  0  0  0  0  0
   11.3510  -33.6210  -31.3610 C   0  0  1  0  0  0  0  0  0  0  0  0
    7.5700  -34.8430  -34.4760 C   0  0  0  0  0  0  0  0  0  0  0  0
   12.8530  -32.4270  -27.9050 Cl  0  0  0  0  0  0  0  0  0  0  0  0
   11.8320  -32.6960  -29.3110 C   0  0  0  0  0  0  0  0  0  0  0  0
   10.1920  -33.2540  -31.0420 C   0  0  2  0  0  0  0  0  0  0  0  0
   12.2840  -33.5330  -30.3190 C   0  0  0  0  0  0  0  0  0  0  0  0
   10.3820  -35.2780  -33.6630 C   0  0  0  0  0  0  0  0  0  0  0  0
    4.2450  -34.0430  -35.8640 N   0  0  0  0  0  0  0  0  0  0  0  0
    7.0210  -33.1530  -33.2710 C   0  0  0  0  0  0  0  0  0  0  0  0
    5.5700  -35.4340  -37.1430 N   0  0  0  0  0  0  0  0  0  0  0  0
  1 21  1  6
  1  8  1  0
  1  4  1  0
  2 16  1  0
  3  8  1  6
  3 13  1  0
  3 17  1  0
  5 19  1  0
  6 11  1  0
  7 20  1  0
  9  2  2  0
 11 10  1  0
 11 14  2  3
 12  5  2  0
 12 14  1  0
 13 17  1  0
 13 18  1  1
 14  1  1  0
 16 15  1  0
 17  9  1  6
 18 16  1  0
 19  8  2  0
 20 10  1  0
 21  4  1  0
 22  7  1  0
 22  6  1  0
M  END
$$$$

     RDKit          3D

 33 36  0  0  0  0  0  0  0  0999 V2000
    6.6810  -33.0220  -33.0930 C   0  0  0  0  0  0  0  0  0  0  0  0
    3.3060  -36.3550  -36.5200 C   0  0  0  0  0  0  0  0  0  0  0  0
    8.7680  -31.7190  -30.2670 C   0  0  0  0  0  0  0  0  0  0  0  0
   10.8950  -33.7510  -30.2760 O   0  0  0  0  0  0  0  0  0  0  0  0
   11.8040  -32.9130  -28.6230 C   0  0  2  0  0  0  0  0  0  0  0  0
   12.0080  -31.8520  -27.9260 F   0  0  0  0  0  0  0  0  0  0  0  0
    6.2960  -34.7780  -34.5500 N   0  0  0  0  0  0  0  0  0  0  0  0
    4.7310  -32.0810  -31.9640 C   0  0  0  0  0  0  0  0  0  0  0  0
    8.5250  -32.6450  -31.2270 O   0  0  0  0  0  0  0  0  0  0  0  0
    9.2240  -33.9520  -33.1810 C   0  0  0  0  0  0  0  0  0  0  0  0
    5.8080  -33.8280  -33.7780 C   0  0  0  0  0  0  0  0  0  0  0  0
   11.0450  -33.5680  -31.6290 C   0  0  2  0  0  0  0  0  0  0  0  0
    2.3990  -36.1880  -37.5820 O   0  0  0  0  0  0  0  0  0  0  0  0
    9.4650  -33.3070  -31.8840 C   0  0  0  0  0  0  0  0  0  0  0  0
    5.4400  -35.4560  -35.4770 C   0  0  0  0  0  0  0  0  0  0  0  0
   11.6140  -33.9510  -27.8800 F   0  0  0  0  0  0  0  0  0  0  0  0
    7.9490  -33.9470  -33.5500 C   0  0  0  0  0  0  0  0  0  0  0  0
   11.7200  -34.5980  -32.1280 F   0  0  0  0  0  0  0  0  0  0  0  0
   12.9430  -33.2250  -29.2600 F   0  0  0  0  0  0  0  0  0  0  0  0
    6.0690  -32.1080  -32.1700 C   0  0  0  0  0  0  0  0  0  0  0  0
    8.4490  -35.8930  -34.8120 C   0  0  0  0  0  0  0  0  0  0  0  0
    4.2020  -35.1980  -36.0230 C   0  0  1  0  0  0  0  0  0  0  0  0
    9.7430  -35.6050  -34.7540 C   0  0  0  0  0  0  0  0  0  0  0  0
   10.8140  -32.8470  -29.4950 C   0  0  0  0  0  0  0  0  0  0  0  0
    7.5540  -35.0140  -34.3020 C   0  0  0  0  0  0  0  0  0  0  0  0
    3.3700  -34.1370  -36.5290 C   0  0  0  0  0  0  0  0  0  0  0  0
    1.1770  -35.4580  -37.5700 C   0  0  0  0  0  0  0  0  0  0  0  0
   10.2230  -34.6350  -33.8920 C   0  0  0  0  0  0  0  0  0  0  0  0
   11.6790  -32.4930  -32.0810 F   0  0  0  0  0  0  0  0  0  0  0  0
    4.7030  -33.6740  -33.5060 C   0  0  0  0  0  0  0  0  0  0  0  0
    3.7830  -32.9060  -32.6720 N   0  0  0  0  0  0  0  0  0  0  0  0
    9.9000  -32.0000  -29.4460 C   0  0  0  0  0  0  0  0  0  0  0  0
    6.5780  -31.1320  -31.1970 O   0  0  0  0  0  0  0  0  0  0  0  0
  1 20  2  0
  2 22  1  0
  3 32  1  0
  4 24  1  0
  5  6  1  1
  5 16  1  0
  7 25  1  0
  7 11  1  0
  9  3  1  0
 10 14  2  3
 11 30  2  0
 11  1  1  0
 12  4  1  0
 13 27  1  0
 13  2  1  0
 14 12  1  0
 14  9  1  0
 15  7  1  0
 17 10  1  0
 17  1  1  0
 12 18  1  6
 19  5  1  0
 20  8  1  0
 20 33  1  0
 21 23  1  0
 21 25  1  0
 22 26  1  6
 22 15  1  0
 23 28  1  0
 24 32  2  0
 24  5  1  0
 25 17  2  0
 28 10  1  0
 29 12  1  0
 30 31  1  0
 31  8  2  0
M  END
$$$$

     RDKit          3D

 21 24  0  0  0  0  0  0  0  0999 V2000
    9.2270  -33.2400  -31.6920 C   0  0  0  0  0  0  0  0  0  0  0  0
   11.6840  -36.3130  -34.4420 C   0  0  0  0  0  0  0  0  0  0  0  0
    6.0160  -32.4820  -32.6280 C   0  0  0  0  0  0  0  0  0  0  0  0
    5.5470  -31.7920  -31.4960 C   0  0  0  0  0  0  0  0  0  0  0  0
    5.1450  -33.1700  -33.4790 C   0  0  0  0  0  0  0  0  0  0  0  0
    9.5480  -33.8330  -32.8770 C   0  0  2  0  0  0  0  0  0  0  0  0
    8.3130  -33.3340  -32.8890 N   0  0  0  0  0  0  0  0  0  0  0  0
    3.7600  -33.0230  -33.1570 C   0  0  0  0  0  0  0  0  0  0  0  0
    7.3750  -32.3480  -32.8580 C   0  0  0  0  0  0  0  0  0  0  0  0
    9.8360  -35.1610  -33.4110 C   0  0  0  0  0  0  0  0  0  0  0  0
   10.9600  -37.4740  -34.4250 C   0  0  0  0  0  0  0  0  0  0  0  0
    5.7410  -34.2150  -34.8190 Cl  0  0  0  0  0  0  0  0  0  0  0  0
    9.1750  -32.7300  -30.7540 O   0  0  0  0  0  0  0  0  0  0  0  0
    9.6450  -37.4910  -33.9260 C   0  0  0  0  0  0  0  0  0  0  0  0
    3.2820  -32.3170  -32.0740 C   0  0  0  0  0  0  0  0  0  0  0  0
    2.8740  -33.5930  -34.1440 O   0  0  0  0  0  0  0  0  0  0  0  0
   11.1100  -35.1680  -33.9020 C   0  0  0  0  0  0  0  0  0  0  0  0
   11.5290  -33.9290  -33.7630 C   0  0  0  0  0  0  0  0  0  0  0  0
    9.1080  -36.3520  -33.4200 C   0  0  0  0  0  0  0  0  0  0  0  0
   10.7110  -33.2870  -33.1750 N   0  0  0  0  0  0  0  0  0  0  0  0
    4.2220  -31.7640  -31.2150 C   0  0  0  0  0  0  0  0  0  0  0  0
  1 13  2  0
  2 11  2  0
  2 17  1  0
  3  4  2  0
  4 21  1  0
  5  8  2  0
  5  3  1  0
  6 10  1  0
  6  1  1  0
  6  7  1  6
  7  9  1  0
  7  1  1  0
  8 15  1  0
  9  3  1  0
 11 14  1  0
 12  5  1  0
 14 19  2  0
 15 21  2  0
 16  8  1  0
 17 18  1  0
 17 10  2  0
 18 20  2  0
 19 10  1  0
 20  6  1  0
M  END
$$$$

     RDKit          3D

 29 32  0  0  0  0  0  0  0  0999 V2000
    8.5990  -36.9760  -34.8460 C   0  0  0  0  0  0  0  0  0  0  0  0
   10.8380  -35.7280  -34.0410 C   0  0  0  0  0  0  0  0  0  0  0  0
    7.8250  -32.8330  -32.0540 C   0  0  1  0  0  0  0  0  0  0  0  0
    9.7140  -37.6150  -34.6170 C   0  0  0  0  0  0  0  0  0  0  0  0
   12.2340  -34.2360  -33.3890 C   0  0  0  0  0  0  0  0  0  0  0  0
   10.8690  -36.9650  -34.3960 C   0  0  0  0  0  0  0  0  0  0  0  0
    6.7250  -31.4640  -31.3750 C   0  0  0  0  0  0  0  0  0  0  0  0
   10.5530  -33.9710  -32.6160 C   0  0  1  0  0  0  0  0  0  0  0  0
    4.5010  -33.6170  -35.9770 C   0  0  0  0  0  0  0  0  0  0  0  0
   10.0810  -33.4640  -31.1980 C   0  0  1  0  0  0  0  0  0  0  0  0
    9.8440  -32.2160  -30.4340 O   0  0  0  0  0  0  0  0  0  0  0  0
    6.9520  -35.1280  -34.5010 C   0  0  0  0  0  0  0  0  0  0  0  0
    7.9980  -35.8770  -34.3370 C   0  0  2  0  0  0  0  0  0  0  0  0
    2.2950  -35.0690  -37.3400 C   0  0  0  0  0  0  0  0  0  0  0  0
    6.9420  -35.7270  -36.8970 O   0  0  0  0  0  0  0  0  0  0  0  0
   11.6000  -33.5590  -33.0170 C   0  0  0  0  0  0  0  0  0  0  0  0
   12.1930  -35.2490  -33.8900 C   0  0  0  0  0  0  0  0  0  0  0  0
    8.6600  -34.9620  -33.4450 C   0  0  0  0  0  0  0  0  0  0  0  0
    6.3060  -35.1600  -35.8990 C   0  0  0  0  0  0  0  0  0  0  0  0
    8.2100  -33.9980  -32.8360 C   0  0  0  0  0  0  0  0  0  0  0  0
    9.9780  -34.9420  -33.4690 C   0  0  0  0  0  0  0  0  0  0  0  0
    3.4980  -35.1810  -37.8970 C   0  0  0  0  0  0  0  0  0  0  0  0
    2.9050  -35.3540  -36.5720 C   0  0  0  0  0  0  0  0  0  0  0  0
    4.9470  -35.8620  -35.6790 O   0  0  0  0  0  0  0  0  0  0  0  0
    5.3960  -34.8710  -36.1060 C   0  0  1  0  0  0  0  0  0  0  0  0
    6.4450  -32.3480  -32.6250 C   0  0  0  0  0  0  0  0  0  0  0  0
    5.0850  -34.8650  -37.7080 C   0  0  0  0  0  0  0  0  0  0  0  0
    8.6380  -33.0280  -32.1250 N   0  0  0  0  0  0  0  0  0  0  0  0
    3.6480  -34.4820  -35.8180 C   0  0  0  0  0  0  0  0  0  0  0  0
  1  4  2  0
  1 13  1  0
  2 17  1  0
  2 21  1  0
  3  7  1  0
  4  6  1  0
  5 16  1  0
  6  2  2  0
  8 16  1  1
  8 10  1  0
  9 29  1  0
 10 11  1  6
 13 12  1  6
 13 18  1  0
 14 23  1  0
 15 19  1  0
 17  5  1  0
 18 20  1  0
 19 12  2  3
 20 28  1  0
 21 18  2  0
 21  8  1  0
 22 14  1  0
 23 29  1  0
 25 27  1  6
 25  9  1  0
 25 19  1  0
 25 24  1  0
 26  3  1  0
 26  7  1  0
  3 28  1  6
 28 10  1  0
M  END
$$$$

     RDKit          3D

 21 24  0  0  0  0  0  0  0  0999 V2000
    6.5440  -33.9990  -34.0020 C   0  0  0  0  0  0  0  0  0  0  0  0
    6.5410  -35.4130  -37.0520 C   0  0  0  0  0  0  0  0  0  0  0  0
    3.2390  -35.7930  -37.1290 C   0  0  0  0  0  0  0  0  0  0  0  0
    7.0610  -34.8830  -34.9410 N   0  0  0  0  0  0  0  0  0  0  0  0
    9.5360  -32.8480  -30.7020 C   0  0  0  0  0  0  0  0  0  0  0  0
    6.9250  -33.1690  -32.9610 C   0  0  0  0  0  0  0  0  0  0  0  0
    5.5900  -34.5630  -37.9950 C   0  0  0  0  0  0  0  0  0  0  0  0
    9.1850  -33.0360  -31.9230 C   0  0  0  0  0  0  0  0  0  0  0  0
   11.6950  -33.5160  -31.3040 C   0  0  0  0  0  0  0  0  0  0  0  0
    5.2780  -34.0540  -34.2430 C   0  0  0  0  0  0  0  0  0  0  0  0
    4.9160  -34.8500  -35.3600 C   0  0  0  0  0  0  0  0  0  0  0  0
    3.1310  -33.8570  -38.8010 C   0  0  0  0  0  0  0  0  0  0  0  0
    3.6190  -35.1740  -35.6730 C   0  0  0  0  0  0  0  0  0  0  0  0
    7.6660  -32.7170  -32.1870 C   0  0  0  0  0  0  0  0  0  0  0  0
    5.6700  -32.4260  -32.9200 N   0  0  0  0  0  0  0  0  0  0  0  0
    6.0650  -35.0570  -35.7510 C   0  0  1  0  0  0  0  0  0  0  0  0
    4.7350  -33.0490  -33.6040 C   0  0  0  0  0  0  0  0  0  0  0  0
   11.2840  -33.6900  -32.5270 C   0  0  0  0  0  0  0  0  0  0  0  0
   10.8240  -33.0120  -30.4150 C   0  0  0  0  0  0  0  0  0  0  0  0
   10.0230  -33.4420  -32.8770 C   0  0  0  0  0  0  0  0  0  0  0  0
    4.1150  -34.9020  -38.0990 C   0  0  2  0  0  0  0  0  0  0  0  0
  1  6  1  0
  3 13  1  0
  4  1  1  0
  5 19  2  0
  6 15  1  0
  6 14  2  3
  7  2  1  0
  8  5  1  0
  9 19  1  0
 10  1  2  0
 10 17  1  0
 11 13  1  0
 11 10  1  0
 14  8  1  0
 16  2  1  6
 16 11  1  0
 16  4  1  0
 17 15  1  0
 18  9  2  0
 20 18  1  0
 20  8  2  0
 21 12  1  1
 21  7  1  0
 21  3  1  0
M  END
$$$$

     RDKit          3D

 40 45  0  0  0  0  0  0  0  0999 V2000
    8.3350  -34.0120  -33.0910 C   0  0  0  0  0  0  0  0  0  0  0  0
   10.8460  -31.7530  -28.1580 C   0  0  0  0  0  0  0  0  0  0  0  0
   10.1010  -36.2050  -34.0070 C   0  0  0  0  0  0  0  0  0  0  0  0
    8.1030  -35.8840  -38.3750 O   0  0  0  0  0  0  0  0  0  0  0  0
    1.5490  -33.9120  -39.9490 C   0  0  2  0  0  0  0  0  0  0  0  0
    7.0200  -34.7530  -35.2410 N   0  0  0  0  0  0  0  0  0  0  0  0
    2.3370  -34.6940  -41.1090 F   0  0  0  0  0  0  0  0  0  0  0  0
   13.0110  -33.2760  -31.3180 N   0  0  0  0  0  0  0  0  0  0  0  0
   14.0190  -33.2460  -26.9340 C   0  0  0  0  0  0  0  0  0  0  0  0
    6.1110  -35.0640  -38.2760 N   0  0  0  0  0  0  0  0  0  0  0  0
    7.3560  -32.3250  -31.7860 C   0  0  0  0  0  0  0  0  0  0  0  0
    2.9210  -33.9810  -37.9070 C   0  0  1  0  0  0  0  0  0  0  0  0
    5.0680  -31.4840  -31.7280 C   0  0  0  0  0  0  0  0  0  0  0  0
    8.8030  -35.8460  -34.7150 N   0  0  0  0  0  0  0  0  0  0  0  0
    5.0060  -34.6770  -37.7150 C   0  0  0  0  0  0  0  0  0  0  0  0
    4.4840  -34.8850  -36.4790 C   0  0  0  0  0  0  0  0  0  0  0  0
   12.0150  -32.5450  -27.9900 C   0  0  0  0  0  0  0  0  0  0  0  0
    2.6520  -32.9930  -40.1710 O   0  0  0  0  0  0  0  0  0  0  0  0
    7.2290  -35.4560  -37.6840 C   0  0  0  0  0  0  0  0  0  0  0  0
    9.3020  -33.3450  -32.3150 C   0  0  2  0  0  0  0  0  0  0  0  0
    2.9930  -34.4040  -36.4910 C   0  0  0  0  0  0  0  0  0  0  0  0
   11.0370  -34.0220  -30.5690 C   0  0  2  0  0  0  0  0  0  0  0  0
    7.4320  -35.6070  -36.3530 C   0  0  1  0  0  0  0  0  0  0  0  0
    4.7060  -32.3280  -32.8160 C   0  0  0  0  0  0  0  0  0  0  0  0
   12.6920  -33.2940  -28.8450 N   0  0  0  0  0  0  0  0  0  0  0  0
    8.6040  -36.1940  -35.9420 C   0  0  0  0  0  0  0  0  0  0  0  0
   10.8090  -33.6360  -31.9060 C   0  0  2  0  0  0  0  0  0  0  0  0
   12.1050  -33.3420  -32.2930 C   0  0  0  0  0  0  0  0  0  0  0  0
   10.2780  -34.5130  -29.6900 F   0  0  0  0  0  0  0  0  0  0  0  0
    6.4170  -31.4720  -31.2930 C   0  0  0  0  0  0  0  0  0  0  0  0
   12.6520  -32.6150  -26.6470 C   0  0  0  0  0  0  0  0  0  0  0  0
   14.9570  -33.3300  -26.1160 O   0  0  0  0  0  0  0  0  0  0  0  0
    4.0990  -34.2520  -38.8270 C   0  0  0  0  0  0  0  0  0  0  0  0
   12.3320  -33.5100  -30.1560 C   0  0  0  0  0  0  0  0  0  0  0  0
    1.5860  -34.4760  -38.6040 C   0  0  0  0  0  0  0  0  0  0  0  0
    8.6830  -32.5940  -31.4960 N   0  0  0  0  0  0  0  0  0  0  0  0
   13.9580  -33.7820  -28.3730 C   0  0  0  0  0  0  0  0  0  0  0  0
    6.9950  -33.1380  -32.8950 C   0  0  0  0  0  0  0  0  0  0  0  0
    5.6720  -33.0770  -33.3550 C   0  0  0  0  0  0  0  0  0  0  0  0
    8.0430  -34.8110  -34.2790 C   0  0  0  0  0  0  0  0  0  0  0  0
  1 38  2  0
  4 19  2  0
  5  7  1  0
  5 35  1  0
  6 40  1  0
  9 31  1  0
  9 32  2  0
 10 15  1  0
 10 19  1  0
 11 36  2  0
 11 30  1  0
 12 35  1  6
 12 21  1  0
 13 30  2  0
 14 40  1  0
 14  3  1  0
 15 16  2  0
 17  2  1  0
 17 31  1  0
  5 18  1  1
 20  1  1  0
 20 27  1  0
 20 36  1  1
 21 16  1  0
 22 34  1  0
 22 29  1  1
 23 19  1  6
 23 26  1  0
 23  6  1  0
 24 13  1  0
 25 37  1  0
 25 17  1  0
 26 14  1  0
 27 28  1  1
 27 22  1  0
 28  8  1  0
 33 12  1  0
 33 15  1  0
 34  8  1  0
 34 25  1  0
 37  9  1  0
 38 11  1  0
 39 38  1  0
 39 24  2  0
 40  1  1  0
M  END
$$$$

     RDKit          3D

 15 17  0  0  0  0  0  0  0  0999 V2000
   10.0790  -34.7630  -33.7700 C   0  0  0  0  0  0  0  0  0  0  0  0
    5.3550  -32.6240  -32.9580 C   0  0  0  0  0  0  0  0  0  0  0  0
    8.5390  -32.5350  -31.6920 N   0  0  0  0  0  0  0  0  0  0  0  0
    4.0880  -32.2220  -32.6650 O   0  0  0  0  0  0  0  0  0  0  0  0
   11.6700  -33.9590  -32.1460 C   0  0  0  0  0  0  0  0  0  0  0  0
    6.8460  -34.2870  -34.1160 C   0  0  0  0  0  0  0  0  0  0  0  0
    5.6230  -33.7070  -34.0340 C   0  0  0  0  0  0  0  0  0  0  0  0
    6.4010  -32.2780  -32.3850 C   0  0  0  0  0  0  0  0  0  0  0  0
   11.3810  -34.6360  -33.3150 C   0  0  0  0  0  0  0  0  0  0  0  0
    9.4750  -33.2410  -32.1010 C   0  0  0  0  0  0  0  0  0  0  0  0
    9.2210  -33.9980  -33.0860 C   0  0  0  0  0  0  0  0  0  0  0  0
    4.3600  -33.9960  -34.7410 C   0  0  0  0  0  0  0  0  0  0  0  0
    7.5770  -32.8960  -32.5770 C   0  0  0  0  0  0  0  0  0  0  0  0
    7.8380  -33.8160  -33.3420 C   0  0  0  0  0  0  0  0  0  0  0  0
   10.6820  -33.2330  -31.6010 C   0  0  0  0  0  0  0  0  0  0  0  0
  1  9  2  0
  1 11  1  0
  2  4  1  0
  2  8  1  0
  5 15  2  0
  6  7  1  0
  6 14  2  0
  7  2  2  0
  9  5  1  0
 10  3  1  0
 10 15  1  0
 11 10  2  0
 12  7  1  0
 13  8  1  0
 13  3  2  0
 14 11  1  0
 14 13  1  0
M  END
$$$$

     RDKit          3D

 26 30  0  0  0  0  0  0  0  0999 V2000
    8.5960  -32.6350  -31.2520 C   0  0  2  0  0  0  0  0  0  0  0  0
    9.6100  -34.7660  -33.5940 C   0  0  0  0  0  0  0  0  0  0  0  0
   11.9710  -33.2270  -30.4020 C   0  0  0  0  0  0  0  0  0  0  0  0
    7.7240  -35.2320  -34.7600 C   0  0  0  0  0  0  0  0  0  0  0  0
    7.5180  -31.8380  -31.1540 F   0  0  0  0  0  0  0  0  0  0  0  0
   12.7210  -33.7920  -29.8710 O   0  0  0  0  0  0  0  0  0  0  0  0
   10.1240  -33.9900  -32.3890 C   0  0  0  0  0  0  0  0  0  0  0  0
   11.2600  -32.9470  -31.3670 C   0  0  2  0  0  0  0  0  0  0  0  0
    5.6140  -34.3160  -34.5260 C   0  0  0  0  0  0  0  0  0  0  0  0
    4.0840  -34.1280  -34.6370 C   0  0  0  0  0  0  0  0  0  0  0  0
   10.7940  -33.1190  -30.3240 C   0  0  1  0  0  0  0  0  0  0  0  0
    3.6610  -34.8320  -35.5500 O   0  0  0  0  0  0  0  0  0  0  0  0
    8.5510  -34.5740  -33.5690 C   0  0  0  0  0  0  0  0  0  0  0  0
    3.3350  -33.4650  -34.0630 N   0  0  0  0  0  0  0  0  0  0  0  0
   11.3610  -33.9340  -32.5890 C   0  0  0  0  0  0  0  0  0  0  0  0
    6.2530  -33.4120  -33.6330 C   0  0  0  0  0  0  0  0  0  0  0  0
   11.3010  -31.8840  -29.1010 C   0  0  0  0  0  0  0  0  0  0  0  0
    9.2620  -32.4100  -30.7150 C   0  0  0  0  0  0  0  0  0  0  0  0
    7.5750  -33.5720  -33.2430 C   0  0  0  0  0  0  0  0  0  0  0  0
    9.2640  -33.3390  -31.6790 C   0  0  0  0  0  0  0  0  0  0  0  0
    7.1200  -31.9310  -32.2060 C   0  0  1  0  0  0  0  0  0  0  0  0
    7.9660  -32.7420  -32.4380 C   0  0  1  0  0  0  0  0  0  0  0  0
   10.2660  -35.3690  -34.2070 F   0  0  0  0  0  0  0  0  0  0  0  0
   12.0630  -34.3520  -33.2190 F   0  0  0  0  0  0  0  0  0  0  0  0
    6.3230  -35.1920  -35.2050 C   0  0  0  0  0  0  0  0  0  0  0  0
    5.6410  -32.5110  -33.0890 C   0  0  0  0  0  0  0  0  0  0  0  0
  1 20  1  0
  1 18  1  6
  2 23  1  0
  2 13  1  0
  2  7  1  0
  3 11  1  0
  3  6  2  0
  4 13  2  0
  7 20  1  0
  8 15  1  6
  8  3  1  0
  8 11  1  0
  9 16  1  0
 10  9  1  0
 10 14  1  0
 11 17  1  1
 12 10  2  0
 13 19  1  0
 15  7  2  0
 16 19  2  0
 16 26  1  0
 18 11  1  0
 21  5  1  1
 22 19  1  1
 22 21  1  0
 22  1  1  0
 24 15  1  0
 25  4  1  0
 25  9  2  0
 26 21  1  0
M  END
$$$$

     RDKit          3D

 20 22  0  0  0  0  0  0  0  0999 V2000
    6.3090  -34.2070  -34.0370 C   0  0  0  0  0  0  0  0  0  0  0  0
    7.0340  -35.2790  -34.4140 C   0  0  0  0  0  0  0  0  0  0  0  0
   11.5840  -36.1700  -34.7160 C   0  0  0  0  0  0  0  0  0  0  0  0
    8.2140  -35.4390  -33.9480 N   0  0  0  0  0  0  0  0  0  0  0  0
   10.4880  -38.0390  -33.8970 C   0  0  0  0  0  0  0  0  0  0  0  0
    8.6590  -34.4360  -33.4280 N   0  0  0  0  0  0  0  0  0  0  0  0
    8.7250  -32.2940  -32.4900 O   0  0  0  0  0  0  0  0  0  0  0  0
    6.7690  -33.3210  -33.2180 C   0  0  1  0  0  0  0  0  0  0  0  0
    3.2090  -32.6490  -33.0970 C   0  0  0  0  0  0  0  0  0  0  0  0
   11.5430  -37.3640  -34.5120 C   0  0  0  0  0  0  0  0  0  0  0  0
    4.6170  -32.9930  -33.4700 C   0  0  0  0  0  0  0  0  0  0  0  0
    9.2700  -35.9150  -34.0120 C   0  0  0  0  0  0  0  0  0  0  0  0
    3.6690  -34.7930  -36.2120 C   0  0  0  0  0  0  0  0  0  0  0  0
    6.5820  -36.1220  -35.2100 O   0  0  0  0  0  0  0  0  0  0  0  0
    9.2850  -37.2340  -33.7080 C   0  0  0  0  0  0  0  0  0  0  0  0
    4.0310  -34.7640  -34.8480 O   0  0  0  0  0  0  0  0  0  0  0  0
   10.2910  -35.4670  -34.5930 C   0  0  0  0  0  0  0  0  0  0  0  0
    8.2430  -33.2830  -33.0840 C   0  0  0  0  0  0  0  0  0  0  0  0
    5.8000  -32.4150  -32.7610 N   0  0  0  0  0  0  0  0  0  0  0  0
    4.9670  -33.9130  -34.2310 C   0  0  0  0  0  0  0  0  0  0  0  0
  2  1  1  0
  2  4  1  0
  3 17  2  0
  3 10  1  0
  4  6  1  0
  5 15  1  0
  6 18  1  0
  8  1  1  0
  8 18  1  0
  8 19  1  6
 10  5  2  0
 11  9  1  0
 11 19  2  0
 12  4  1  0
 12 15  2  0
 13 16  1  0
 14  2  2  0
 16 20  1  0
 17 12  1  0
 18  7  2  0
 20  1  2  0
 20 11  1  0
M  END
$$$$

     RDKit          3D

 35 40  0  0  0  0  0  0  0  0999 V2000
    9.6840  -34.4860  -31.1170 C   0  0  0  0  0  0  0  0  0  0  0  0
   12.4350  -33.0510  -31.5030 C   0  0  0  0  0  0  0  0  0  0  0  0
   11.1650  -33.7700  -32.5510 C   0  0  0  0  0  0  0  0  0  0  0  0
    8.1360  -35.6210  -35.2160 C   0  0  0  0  0  0  0  0  0  0  0  0
    9.7490  -35.2820  -33.6340 C   0  0  0  0  0  0  0  0  0  0  0  0
   11.2130  -31.0570  -29.1180 C   0  0  0  0  0  0  0  0  0  0  0  0
    3.4750  -34.2160  -37.7150 C   0  0  0  0  0  0  0  0  0  0  0  0
    4.1640  -31.7900  -32.2270 C   0  0  0  0  0  0  0  0  0  0  0  0
    3.4210  -32.4610  -33.1600 C   0  0  0  0  0  0  0  0  0  0  0  0
    7.5990  -33.1650  -33.2840 C   0  0  1  0  0  0  0  0  0  0  0  0
    3.4990  -33.2190  -36.5940 C   0  0  0  0  0  0  0  0  0  0  0  0
    5.3550  -33.5930  -33.9420 C   0  0  0  0  0  0  0  0  0  0  0  0
    6.1520  -34.6570  -34.4880 O   0  0  0  0  0  0  0  0  0  0  0  0
    4.0730  -33.2530  -34.1530 C   0  0  0  0  0  0  0  0  0  0  0  0
   12.9770  -32.5130  -28.0590 O   0  0  0  0  0  0  0  0  0  0  0  0
   10.1880  -33.6510  -30.1930 C   0  0  0  0  0  0  0  0  0  0  0  0
    5.5990  -31.9770  -32.2310 C   0  0  0  0  0  0  0  0  0  0  0  0
   11.3210  -33.3700  -27.0070 F   0  0  0  0  0  0  0  0  0  0  0  0
    3.2620  -33.7740  -35.2440 N   0  0  0  0  0  0  0  0  0  0  0  0
    9.0830  -36.7490  -35.7090 C   0  0  0  0  0  0  0  0  0  0  0  0
    2.3990  -34.7530  -38.0430 O   0  0  0  0  0  0  0  0  0  0  0  0
    9.8920  -34.5110  -32.5140 C   0  0  1  0  0  0  0  0  0  0  0  0
   11.0830  -32.4600  -29.6130 C   0  0  2  0  0  0  0  0  0  0  0  0
   10.4000  -36.6970  -35.3380 C   0  0  0  0  0  0  0  0  0  0  0  0
   11.7310  -32.5360  -27.5470 C   0  0  2  0  0  0  0  0  0  0  0  0
   12.0140  -33.4410  -28.5970 C   0  0  2  0  0  0  0  0  0  0  0  0
    6.0880  -32.8390  -33.1290 C   0  0  0  0  0  0  0  0  0  0  0  0
   11.1810  -31.3200  -27.6270 C   0  0  0  0  0  0  0  0  0  0  0  0
    8.5200  -35.3000  -34.1090 C   0  0  1  0  0  0  0  0  0  0  0  0
    8.4740  -32.4700  -32.2090 C   0  0  0  0  0  0  0  0  0  0  0  0
   12.0400  -33.5910  -32.8050 C   0  0  0  0  0  0  0  0  0  0  0  0
    4.4620  -34.3780  -38.4430 O   0  0  0  0  0  0  0  0  0  0  0  0
   10.6680  -36.0540  -34.1030 C   0  0  0  0  0  0  0  0  0  0  0  0
   11.0680  -32.5850  -30.7440 C   0  0  1  0  0  0  0  0  0  0  0  0
    7.2690  -34.6370  -33.4730 C   0  0  1  0  0  0  0  0  0  0  0  0
  1 16  1  0
  3 22  1  0
  6 28  1  0
  7 11  1  0
  9  8  2  0
 10 27  1  0
 10 30  1  1
 11 19  1  0
 12 27  1  0
 13 12  1  0
 14 12  2  0
 14  9  1  0
 15 25  1  0
 17  8  1  0
 19 14  1  0
 20 24  1  0
 20  4  1  0
 21  7  1  0
 22  5  1  1
 22  1  1  0
 23  6  1  6
 23 26  1  0
 24 33  1  0
 25 18  1  1
 26 15  1  6
 26 25  1  0
 27 17  2  0
 28 25  1  0
 29  4  1  6
 29  5  1  0
 29 35  1  0
 31  3  1  0
 31  2  1  0
 32  7  2  0
 33  5  2  0
 34  2  1  1
 34 16  1  0
 34 23  1  0
 35 13  1  6
 35 10  1  0
M  END
$$$$

     RDKit          3D

 33 38  0  0  0  0  0  0  0  0999 V2000
   11.7070  -32.3720  -27.7870 C   0  0  0  0  0  0  0  0  0  0  0  0
    7.7450  -32.0440  -31.7370 C   0  0  0  0  0  0  0  0  0  0  0  0
   11.1290  -32.7530  -30.0350 C   0  0  0  0  0  0  0  0  0  0  0  0
    6.5050  -34.1870  -34.0620 C   0  0  0  0  0  0  0  0  0  0  0  0
   10.8360  -36.1260  -34.4900 C   0  0  0  0  0  0  0  0  0  0  0  0
    3.6260  -34.4980  -37.0090 O   0  0  0  0  0  0  0  0  0  0  0  0
    5.4870  -31.8080  -30.9030 C   0  0  0  0  0  0  0  0  0  0  0  0
    7.9120  -34.8940  -34.3030 C   0  0  0  0  0  0  0  0  0  0  0  0
    8.1720  -35.9160  -34.8540 C   0  0  0  0  0  0  0  0  0  0  0  0
   12.7390  -33.7110  -31.1060 N   0  0  0  0  0  0  0  0  0  0  0  0
    9.5320  -36.4230  -35.0130 C   0  0  0  0  0  0  0  0  0  0  0  0
    7.6950  -32.9110  -32.5610 C   0  0  0  0  0  0  0  0  0  0  0  0
    5.5400  -34.6520  -34.8560 C   0  0  2  0  0  0  0  0  0  0  0  0
    3.4370  -34.1310  -35.8250 C   0  0  0  0  0  0  0  0  0  0  0  0
    5.9860  -32.4680  -33.0700 C   0  0  0  0  0  0  0  0  0  0  0  0
    8.8940  -31.9900  -31.0900 N   0  0  0  0  0  0  0  0  0  0  0  0
    6.6650  -31.0440  -31.4650 C   0  0  0  0  0  0  0  0  0  0  0  0
   12.2650  -33.4380  -29.9150 C   0  0  0  0  0  0  0  0  0  0  0  0
   11.8070  -33.7000  -31.9920 C   0  0  0  0  0  0  0  0  0  0  0  0
    5.8940  -35.6920  -35.5560 C   0  0  0  0  0  0  0  0  0  0  0  0
   11.3270  -32.5220  -28.0350 N   0  0  0  0  0  0  0  0  0  0  0  0
   10.6580  -33.0370  -31.5410 C   0  0  1  0  0  0  0  0  0  0  0  0
   11.9130  -34.2430  -33.1520 O   0  0  0  0  0  0  0  0  0  0  0  0
    6.9240  -36.5450  -35.4140 C   0  0  0  0  0  0  0  0  0  0  0  0
    4.4350  -33.8340  -34.7790 C   0  0  0  0  0  0  0  0  0  0  0  0
    8.5050  -33.6100  -32.3880 C   0  0  0  0  0  0  0  0  0  0  0  0
   10.7780  -34.9690  -33.7080 C   0  0  2  0  0  0  0  0  0  0  0  0
    8.9540  -34.2900  -33.3040 C   0  0  0  0  0  0  0  0  0  0  0  0
    9.7480  -32.9830  -31.7120 C   0  0  0  0  0  0  0  0  0  0  0  0
    9.5090  -34.3440  -33.2140 C   0  0  0  0  0  0  0  0  0  0  0  0
    6.6550  -33.2410  -33.1740 C   0  0  0  0  0  0  0  0  0  0  0  0
   10.8130  -32.2450  -28.8440 N   0  0  0  0  0  0  0  0  0  0  0  0
    4.8970  -32.3640  -32.1160 C   0  0  0  0  0  0  0  0  0  0  0  0
  2 17  1  0
  2 16  1  0
  3 18  1  0
  3 32  2  3
  4 31  2  0
  6 14  2  0
  8  4  1  0
  8 28  2  0
  9  8  1  0
 10 18  1  0
 11  9  2  0
 11  5  1  0
 12 26  2  0
 12  2  1  0
 13 25  1  6
 13  4  1  0
 14 25  1  0
 15 33  1  0
 17  7  1  0
 19 22  1  0
 19 10  2  0
 20 24  1  0
 20 13  1  0
 21  1  2  0
 22 29  1  1
 22  3  1  0
 23 19  1  0
 24  9  1  0
 27  5  1  1
 27 30  1  0
 27 23  1  0
 28 30  1  0
 28 26  1  0
 29 16  1  0
 31 15  1  0
 31 12  1  0
 32 21  1  0
 33  7  1  0
M  END
$$$$

     RDKit          3D

 30 33  0  0  0  0  0  0  0  0999 V2000
   10.8190  -35.4360  -34.3780 C   0  0  0  0  0  0  0  0  0  0  0  0
   10.5140  -33.1570  -30.7120 C   0  0  0  0  0  0  0  0  0  0  0  0
    6.4980  -35.4090  -35.7160 C   0  0  0  0  0  0  0  0  0  0  0  0
    5.4250  -33.7930  -34.2840 N   0  0  0  0  0  0  0  0  0  0  0  0
    3.2100  -31.8130  -31.4870 O   0  0  0  0  0  0  0  0  0  0  0  0
   12.5190  -33.0390  -31.1390 N   0  0  0  0  0  0  0  0  0  0  0  0
    9.4930  -34.4480  -32.3910 C   0  0  0  0  0  0  0  0  0  0  0  0
   10.8100  -36.7670  -34.3840 C   0  0  0  0  0  0  0  0  0  0  0  0
    4.6540  -33.2570  -33.0980 C   0  0  1  0  0  0  0  0  0  0  0  0
    9.7380  -37.3600  -34.4440 C   0  0  0  0  0  0  0  0  0  0  0  0
   10.5270  -34.5970  -33.1370 C   0  0  2  0  0  0  0  0  0  0  0  0
    4.5070  -32.2800  -31.5370 C   0  0  1  0  0  0  0  0  0  0  0  0
   11.7130  -33.8390  -32.9270 C   0  0  0  0  0  0  0  0  0  0  0  0
    9.3320  -36.1720  -34.3760 C   0  0  0  0  0  0  0  0  0  0  0  0
    8.6620  -35.5380  -34.6990 C   0  0  0  0  0  0  0  0  0  0  0  0
    8.0330  -32.3860  -31.1280 C   0  0  0  0  0  0  0  0  0  0  0  0
    2.3560  -31.6850  -30.3200 C   0  0  0  0  0  0  0  0  0  0  0  0
    8.5000  -31.9750  -30.0250 O   0  0  0  0  0  0  0  0  0  0  0  0
    6.1480  -34.2660  -34.9580 C   0  0  0  0  0  0  0  0  0  0  0  0
   12.6740  -33.7300  -33.6430 O   0  0  0  0  0  0  0  0  0  0  0  0
    6.9160  -32.6780  -32.9070 C   0  0  0  0  0  0  0  0  0  0  0  0
    6.8580  -31.8970  -31.7690 C   0  0  1  0  0  0  0  0  0  0  0  0
    9.3210  -33.1240  -31.7480 C   0  0  0  0  0  0  0  0  0  0  0  0
   11.6920  -32.9560  -29.8090 O   0  0  0  0  0  0  0  0  0  0  0  0
   11.5570  -33.4420  -31.6260 C   0  0  0  0  0  0  0  0  0  0  0  0
    5.6970  -32.9660  -33.3490 C   0  0  1  0  0  0  0  0  0  0  0  0
   10.6650  -32.7530  -29.6070 N   0  0  0  0  0  0  0  0  0  0  0  0
    6.8160  -35.2230  -35.2560 C   0  0  0  0  0  0  0  0  0  0  0  0
    5.6270  -31.6470  -31.1250 C   0  0  0  0  0  0  0  0  0  0  0  0
    7.9850  -35.5430  -34.3700 C   0  0  0  0  0  0  0  0  0  0  0  0
  1 11  1  0
  2 27  1  0
  3 28  2  0
  4 19  1  0
  4 26  1  0
  9  4  1  1
  5 17  1  0
  6 24  1  0
  7 23  1  0
  8  1  1  0
  9 12  1  0
 10  8  1  0
 10 14  1  0
 11 13  1  6
 11  7  1  0
 12  5  1  6
 12 29  1  0
 13 25  1  0
 15 14  1  0
 15 30  1  0
 16 18  2  0
 20 13  2  0
 21 22  1  0
 22 16  1  0
 22 29  1  1
 23 16  1  0
 24 27  1  0
 25  6  1  0
 25  2  2  0
 26  9  1  0
 26 21  1  1
 28 19  1  0
 28 30  1  0
M  END
$$$$

     RDKit          3D

 26 27  0  0  0  0  0  0  0  0999 V2000
   10.1750  -35.1740  -34.2320 C   0  0  0  0  0  0  0  0  0  0  0  0
    4.7310  -34.3360  -35.1620 C   0  0  0  0  0  0  0  0  0  0  0  0
   10.6840  -33.2380  -33.2180 C   0  0  0  0  0  0  0  0  0  0  0  0
    2.5230  -33.2420  -32.7850 O   0  0  0  0  0  0  0  0  0  0  0  0
    3.8300  -32.6060  -32.1100 N   0  0  0  0  0  0  0  0  0  0  0  0
    5.9140  -31.9240  -31.6620 C   0  0  0  0  0  0  0  0  0  0  0  0
    5.5720  -31.1380  -31.0140 F   0  0  0  0  0  0  0  0  0  0  0  0
   10.4900  -32.9460  -31.0150 C   0  0  0  0  0  0  0  0  0  0  0  0
    3.4880  -31.9980  -31.0190 O   0  0  0  0  0  0  0  0  0  0  0  0
   10.1510  -34.4410  -33.1070 C   0  0  0  0  0  0  0  0  0  0  0  0
    5.1120  -32.6800  -32.3790 C   0  0  0  0  0  0  0  0  0  0  0  0
    7.1230  -32.2470  -31.8090 C   0  0  0  0  0  0  0  0  0  0  0  0
    8.7520  -35.9210  -34.6920 C   0  0  0  0  0  0  0  0  0  0  0  0
    9.4150  -33.6480  -31.2110 C   0  0  0  0  0  0  0  0  0  0  0  0
    5.0240  -35.1180  -36.1620 C   0  0  0  0  0  0  0  0  0  0  0  0
    6.8020  -34.9190  -34.7480 C   0  0  0  0  0  0  0  0  0  0  0  0
    7.0990  -33.2360  -32.7610 C   0  0  0  0  0  0  0  0  0  0  0  0
    5.8180  -33.3040  -33.2450 C   0  0  1  0  0  0  0  0  0  0  0  0
   10.6870  -33.5690  -32.5930 C   0  0  0  0  0  0  0  0  0  0  0  0
   11.6500  -33.4810  -31.7970 C   0  0  0  0  0  0  0  0  0  0  0  0
    8.2430  -33.9460  -33.0720 C   0  0  0  0  0  0  0  0  0  0  0  0
    6.5630  -35.7400  -36.0670 S   0  0  0  0  0  0  0  0  0  0  0  0
    7.9380  -35.0750  -33.8820 C   0  0  0  0  0  0  0  0  0  0  0  0
    8.9060  -35.4860  -34.0150 C   0  0  2  0  0  0  0  0  0  0  0  0
    9.7810  -34.1780  -32.4840 C   0  0  2  0  0  0  0  0  0  0  0  0
    5.8270  -34.2210  -34.3670 N   0  0  0  0  0  0  0  0  0  0  0  0
 24  1  1  6
  2 26  1  0
  3 19  1  0
  4  5  1  0
  5  9  2  0
  6  7  1  0
 11  5  1  0
 11  6  1  0
 12  6  1  0
 13 24  1  0
 14  8  1  0
 15 22  1  0
 15  2  2  0
 16 26  1  0
 17 12  1  0
 18 26  1  1
 18 17  1  0
 18 11  1  0
 19 25  1  0
 20  8  1  0
 21 17  2  3
 21 25  1  0
 22 16  1  0
 23 21  1  0
 24 23  1  0
 25 10  1  1
 25 14  1  0
M  CHG  2   4  -1   5   1
M  END
$$$$

     RDKit          3D

 22 26  0  0  0  0  0  0  0  0999 V2000
    8.8380  -32.9290  -31.9110 C   0  0  2  0  0  0  0  0  0  0  0  0
    8.2140  -34.2760  -33.6320 C   0  0  1  0  0  0  0  0  0  0  0  0
   10.7520  -34.6850  -33.3760 C   0  0  0  0  0  0  0  0  0  0  0  0
    9.0310  -34.6000  -34.3320 C   0  0  2  0  0  0  0  0  0  0  0  0
    7.2670  -35.2600  -35.3550 C   0  0  0  0  0  0  0  0  0  0  0  0
    9.0650  -33.7970  -32.7220 C   0  0  0  0  0  0  0  0  0  0  0  0
    8.2030  -33.3540  -32.6260 N   0  0  0  0  0  0  0  0  0  0  0  0
    6.0280  -34.8910  -35.2270 C   0  0  0  0  0  0  0  0  0  0  0  0
    6.0600  -33.1380  -33.2760 C   0  0  0  0  0  0  0  0  0  0  0  0
    9.7610  -33.3940  -31.5100 C   0  0  1  0  0  0  0  0  0  0  0  0
    8.0500  -32.1890  -31.4970 F   0  0  0  0  0  0  0  0  0  0  0  0
    8.5400  -35.2130  -34.6990 C   0  0  0  0  0  0  0  0  0  0  0  0
   10.5050  -34.0040  -31.7910 C   0  0  1  0  0  0  0  0  0  0  0  0
    5.1840  -34.1620  -34.7500 C   0  0  0  0  0  0  0  0  0  0  0  0
    9.6390  -34.3030  -33.6020 C   0  0  0  0  0  0  0  0  0  0  0  0
   10.9820  -33.6600  -31.0710 C   0  0  0  0  0  0  0  0  0  0  0  0
    4.9700  -33.3250  -33.9180 C   0  0  0  0  0  0  0  0  0  0  0  0
    7.1490  -33.7230  -33.3960 C   0  0  1  0  0  0  0  0  0  0  0  0
    7.7700  -34.8900  -34.1980 C   0  0  0  0  0  0  0  0  0  0  0  0
   11.2730  -34.3500  -32.4680 C   0  0  0  0  0  0  0  0  0  0  0  0
    9.9760  -33.9530  -32.9770 C   0  0  1  0  0  0  0  0  0  0  0  0
   10.6730  -32.8420  -30.8340 C   0  0  0  0  0  0  0  0  0  0  0  0
  1 10  1  0
  1 11  1  1
  2 19  1  6
  2 18  1  0
 21  3  1  1
  3 20  1  0
  4 12  1  1
  4  2  1  0
  4 15  1  0
  5  8  1  0
  7  6  1  0
  7  1  1  0
  8 14  2  3
 10 22  1  6
 12 19  1  0
 13 20  1  6
 13 10  1  0
 13 16  1  0
 14 17  1  0
 16 22  1  0
 17  9  1  0
 18  9  1  6
 18  7  1  0
 21 15  1  0
 21  6  1  0
 21 13  1  0
M  END
$$$$

     RDKit          3D

 36 41  0  0  0  0  0  0  0  0999 V2000
   10.3970  -32.9610  -31.0150 C   0  0  0  0  0  0  0  0  0  0  0  0
   12.5850  -32.9680  -27.5560 F   0  0  0  0  0  0  0  0  0  0  0  0
   11.2530  -34.2130  -28.6300 F   0  0  0  0  0  0  0  0  0  0  0  0
   10.1450  -34.6100  -34.3000 O   0  0  0  0  0  0  0  0  0  0  0  0
    9.5110  -31.5810  -29.3420 C   0  0  0  0  0  0  0  0  0  0  0  0
   10.7730  -32.0690  -29.6700 N   0  0  0  0  0  0  0  0  0  0  0  0
    5.2990  -34.9690  -35.2250 N   0  0  0  0  0  0  0  0  0  0  0  0
    3.5780  -33.7670  -36.3790 C   0  0  0  0  0  0  0  0  0  0  0  0
   11.8080  -31.8890  -29.2090 C   0  0  0  0  0  0  0  0  0  0  0  0
   11.1970  -35.5700  -34.4940 C   0  0  0  0  0  0  0  0  0  0  0  0
    6.2920  -34.0090  -36.9710 O   0  0  0  0  0  0  0  0  0  0  0  0
   13.1170  -33.7340  -29.4710 F   0  0  0  0  0  0  0  0  0  0  0  0
   10.6580  -36.9820  -34.1380 C   0  0  0  0  0  0  0  0  0  0  0  0
    7.4120  -34.6270  -34.1180 C   0  0  1  0  0  0  0  0  0  0  0  0
   12.2650  -33.2550  -28.7060 C   0  0  1  0  0  0  0  0  0  0  0  0
    5.3060  -33.2070  -33.5730 C   0  0  2  0  0  0  0  0  0  0  0  0
   10.5200  -34.2520  -31.9140 C   0  0  0  0  0  0  0  0  0  0  0  0
    5.7080  -32.3660  -32.5500 C   0  0  2  0  0  0  0  0  0  0  0  0
    6.2710  -31.6210  -32.1100 O   0  0  0  0  0  0  0  0  0  0  0  0
    7.4380  -35.6640  -34.9890 C   0  0  1  0  0  0  0  0  0  0  0  0
    4.0260  -33.2310  -33.2970 O   0  0  0  0  0  0  0  0  0  0  0  0
    2.2730  -35.7940  -37.1790 C   0  0  0  0  0  0  0  0  0  0  0  0
    5.8930  -34.2620  -34.0120 C   0  0  1  0  0  0  0  0  0  0  0  0
    9.8130  -34.3420  -32.9970 C   0  0  0  0  0  0  0  0  0  0  0  0
    8.2060  -33.0390  -32.1860 C   0  0  0  0  0  0  0  0  0  0  0  0
    8.6860  -31.6900  -30.2660 N   0  0  0  0  0  0  0  0  0  0  0  0
    8.0710  -36.7540  -34.7580 C   0  0  0  0  0  0  0  0  0  0  0  0
    6.3030  -35.2320  -36.1540 C   0  0  1  0  0  0  0  0  0  0  0  0
    3.6900  -32.2980  -32.2520 C   0  0  0  0  0  0  0  0  0  0  0  0
    6.6800  -32.6420  -32.2790 C   0  0  2  0  0  0  0  0  0  0  0  0
    9.3120  -37.1440  -34.4170 C   0  0  0  0  0  0  0  0  0  0  0  0
    9.0020  -32.5450  -31.2090 C   0  0  0  0  0  0  0  0  0  0  0  0
    8.3200  -34.0470  -33.0890 C   0  0  0  0  0  0  0  0  0  0  0  0
    2.8460  -34.4420  -37.4940 C   0  0  0  0  0  0  0  0  0  0  0  0
    1.0100  -36.0730  -37.9200 N   0  0  0  0  0  0  0  0  0  0  0  0
    3.9810  -34.8600  -35.4100 C   0  0  0  0  0  0  0  0  0  0  0  0
  1  6  1  0
  4 24  1  0
  6  5  1  0
  6  9  1  0
  8 36  1  0
  9 15  1  0
 10  4  1  0
 10 13  1  0
 15 12  1  6
 14 23  1  0
 14 33  1  1
 15  3  1  0
 15  2  1  0
 16 21  1  1
 16 18  1  0
 17  1  1  0
 18 30  1  0
 18 19  1  6
 20 27  1  1
 20 14  1  0
 21 29  1  0
 23  7  1  6
 23 16  1  0
 24 17  2  0
 25 32  1  0
 26  5  1  0
 27 31  1  0
 28 11  1  1
 28  7  1  0
 28 20  1  0
 30 25  1  0
 30 19  1  1
 31 13  1  0
 32  1  2  0
 32 26  1  0
 33 24  1  0
 33 25  2  0
 34 22  1  0
 34  8  1  0
 35 22  1  0
 36  7  1  0
M  END
$$$$

     RDKit          3D

 15 16  0  0  0  0  0  0  0  0999 V2000
    8.2940  -36.3430  -34.8760 C   0  0  0  0  0  0  0  0  0  0  0  0
   10.2050  -35.1420  -33.4730 C   0  0  0  0  0  0  0  0  0  0  0  0
    9.8240  -36.4180  -33.0930 C   0  0  0  0  0  0  0  0  0  0  0  0
    9.8510  -34.5910  -34.5310 C   0  0  0  0  0  0  0  0  0  0  0  0
   11.4610  -33.5090  -32.5640 C   0  0  0  0  0  0  0  0  0  0  0  0
    8.8810  -36.9560  -33.7820 C   0  0  0  0  0  0  0  0  0  0  0  0
   11.8330  -33.5840  -31.9760 C   0  0  0  0  0  0  0  0  0  0  0  0
   13.7640  -33.9580  -33.3520 C   0  0  0  0  0  0  0  0  0  0  0  0
   11.2950  -33.8300  -31.0020 C   0  0  0  0  0  0  0  0  0  0  0  0
    8.7770  -35.1410  -35.1750 C   0  0  0  0  0  0  0  0  0  0  0  0
   11.1640  -34.0940  -32.6050 C   0  0  1  0  0  0  0  0  0  0  0  0
   11.1330  -33.2860  -30.9320 C   0  0  0  0  0  0  0  0  0  0  0  0
    9.9520  -33.7110  -31.2390 C   0  0  0  0  0  0  0  0  0  0  0  0
   13.5760  -33.4160  -32.0380 S   0  0  0  0  0  0  0  0  0  0  0  0
   12.4380  -34.7090  -33.0870 C   0  0  2  0  0  0  0  0  0  0  0  0
  1  6  2  0
  2  3  2  0
  2 11  1  0
  4  2  1  0
  5  7  1  0
  6  3  1  0
 15  8  1  6
  8 14  1  0
  9 12  1  0
 10  1  1  0
 10  4  2  0
 11  5  1  6
 11  9  1  0
 13 12  1  0
 15 11  1  0
 15 14  1  0
M  END
$$$$

     RDKit          3D

 25 27  0  0  0  0  0  0  0  0999 V2000
   11.7370  -36.2720  -34.4440 C   0  0  0  0  0  0  0  0  0  0  0  0
   10.1970  -33.2760  -31.7030 C   0  0  0  0  0  0  0  0  0  0  0  0
    7.6220  -34.4110  -34.0430 C   0  0  0  0  0  0  0  0  0  0  0  0
    4.4260  -35.9060  -37.5880 C   0  0  0  0  0  0  0  0  0  0  0  0
    9.5590  -37.2880  -34.2150 C   0  0  0  0  0  0  0  0  0  0  0  0
   12.3610  -33.6370  -30.0970 C   0  0  0  0  0  0  0  0  0  0  0  0
   12.5200  -33.6070  -31.4080 C   0  0  0  0  0  0  0  0  0  0  0  0
    7.4820  -35.2050  -35.0560 C   0  0  0  0  0  0  0  0  0  0  0  0
    6.4680  -35.4660  -35.7700 C   0  0  0  0  0  0  0  0  0  0  0  0
    9.9240  -34.8120  -33.9520 N   0  0  0  0  0  0  0  0  0  0  0  0
    7.7640  -31.6360  -30.9110 C   0  0  0  0  0  0  0  0  0  0  0  0
    3.0680  -34.9510  -35.6820 N   0  0  0  0  0  0  0  0  0  0  0  0
    8.8910  -34.2020  -33.4470 C   0  0  0  0  0  0  0  0  0  0  0  0
   10.0330  -33.1900  -30.3710 C   0  0  0  0  0  0  0  0  0  0  0  0
    7.8400  -32.6420  -31.9780 C   0  0  0  0  0  0  0  0  0  0  0  0
    4.3270  -33.5950  -37.2310 O   0  0  0  0  0  0  0  0  0  0  0  0
   11.4720  -33.2850  -32.3000 C   0  0  0  0  0  0  0  0  0  0  0  0
    4.2670  -34.9330  -36.4690 C   0  0  2  0  0  0  0  0  0  0  0  0
    6.5680  -33.5790  -33.7000 C   0  0  0  0  0  0  0  0  0  0  0  0
    6.6410  -32.7460  -32.6640 O   0  0  0  0  0  0  0  0  0  0  0  0
    5.4160  -33.7810  -34.4180 C   0  0  0  0  0  0  0  0  0  0  0  0
    5.3920  -34.6740  -35.4550 C   0  0  0  0  0  0  0  0  0  0  0  0
   11.1600  -33.4300  -29.4910 C   0  0  0  0  0  0  0  0  0  0  0  0
   10.4500  -36.1370  -33.7270 C   0  0  2  0  0  0  0  0  0  0  0  0
    8.9490  -33.3180  -32.4300 C   0  0  0  0  0  0  0  0  0  0  0  0
 24  1  1  6
  2 14  2  0
  3 19  1  0
  3 13  2  0
  5 24  1  0
  6 23  2  0
  7  6  1  0
  8  3  1  0
  9 22  2  0
  9  8  1  0
 10 24  1  0
 10 13  1  0
 13 25  1  0
 14 23  1  0
 15 11  1  0
 16 18  1  0
 17  2  1  0
 17  7  2  0
 18  4  1  6
 18 12  1  0
 18 22  1  0
 19 20  1  0
 20 15  1  0
 21 19  2  0
 22 21  1  0
 25 15  2  0
 25  2  1  0
M  END
$$$$

     RDKit          3D

 25 27  0  0  0  0  0  0  0  0999 V2000
   10.8350  -33.9890  -32.4350 C   0  0  1  0  0  0  0  0  0  0  0  0
    9.6170  -35.6070  -32.5440 O   0  0  0  0  0  0  0  0  0  0  0  0
   10.6460  -33.3570  -31.4990 C   0  0  0  0  0  0  0  0  0  0  0  0
    5.8760  -31.9460  -31.3720 C   0  0  0  0  0  0  0  0  0  0  0  0
    3.5910  -31.9700  -32.1250 N   0  0  0  0  0  0  0  0  0  0  0  0
    4.4640  -34.1690  -34.6840 C   0  0  0  0  0  0  0  0  0  0  0  0
    5.7290  -32.5350  -32.6510 C   0  0  0  0  0  0  0  0  0  0  0  0
    9.1250  -33.8360  -33.7370 C   0  0  1  0  0  0  0  0  0  0  0  0
   11.8740  -34.1640  -33.1120 C   0  0  0  0  0  0  0  0  0  0  0  0
    8.0100  -35.0350  -34.5610 C   0  0  0  0  0  0  0  0  0  0  0  0
    6.7550  -32.8250  -33.5450 C   0  0  0  0  0  0  0  0  0  0  0  0
   11.8030  -34.7940  -34.1010 C   0  0  0  0  0  0  0  0  0  0  0  0
    2.8170  -33.9010  -36.8840 C   0  0  0  0  0  0  0  0  0  0  0  0
    6.6170  -31.9590  -31.6620 C   0  0  0  0  0  0  0  0  0  0  0  0
    8.1440  -33.2030  -32.9110 C   0  0  0  0  0  0  0  0  0  0  0  0
    2.1540  -32.0820  -32.8710 C   0  0  0  0  0  0  0  0  0  0  0  0
    7.6690  -31.6610  -31.1720 O   0  0  0  0  0  0  0  0  0  0  0  0
    2.5870  -32.7280  -33.9100 C   0  0  0  0  0  0  0  0  0  0  0  0
    4.5820  -32.6800  -32.6960 C   0  0  2  0  0  0  0  0  0  0  0  0
    3.4180  -34.7180  -36.0030 C   0  0  0  0  0  0  0  0  0  0  0  0
   10.6060  -35.7170  -34.1910 C   0  0  1  0  0  0  0  0  0  0  0  0
    9.9700  -34.9930  -32.8720 C   0  0  1  0  0  0  0  0  0  0  0  0
   10.1810  -34.1090  -30.4970 C   0  0  0  0  0  0  0  0  0  0  0  0
    9.2410  -35.7240  -35.0030 C   0  0  0  0  0  0  0  0  0  0  0  0
    4.0010  -32.9210  -34.1340 C   0  0  1  0  0  0  0  0  0  0  0  0
  1  3  1  1
  3 23  1  0
  7 11  1  0
  7  4  1  0
  8 15  1  0
  8 22  1  0
  9  1  1  0
  8 10  1  6
 11 15  2  3
 12  9  1  0
 13 20  2  0
 14  4  1  0
 14 17  2  0
 16  5  1  0
 18 16  1  0
 19  7  1  6
 19  5  1  0
 20  6  1  0
 21 24  1  6
 21 12  1  0
 21 22  1  0
 22  2  1  1
 22  1  1  0
 24 10  1  0
 25  6  1  1
 25 18  1  0
 25 19  1  0
M  END
$$$$

     RDKit          3D

 32 36  0  0  0  0  0  0  0  0999 V2000
    2.5210  -32.1290  -33.2120 C   0  0  0  0  0  0  0  0  0  0  0  0
   11.8550  -32.4030  -28.7550 C   0  0  0  0  0  0  0  0  0  0  0  0
    2.9160  -34.9230  -36.9420 C   0  0  0  0  0  0  0  0  0  0  0  0
    2.4430  -33.5260  -35.1340 N   0  0  0  0  0  0  0  0  0  0  0  0
   10.3240  -38.2280  -34.6390 C   0  0  0  0  0  0  0  0  0  0  0  0
    9.2430  -36.1290  -34.0310 C   0  0  0  0  0  0  0  0  0  0  0  0
    2.0210  -32.7110  -33.9590 C   0  0  0  0  0  0  0  0  0  0  0  0
    7.9680  -33.8760  -33.1510 N   0  0  0  0  0  0  0  0  0  0  0  0
    5.7580  -33.7750  -33.7130 C   0  0  0  0  0  0  0  0  0  0  0  0
    6.6910  -33.1190  -32.9550 C   0  0  1  0  0  0  0  0  0  0  0  0
    8.7430  -33.2820  -32.3540 C   0  0  0  0  0  0  0  0  0  0  0  0
   11.2560  -33.1760  -29.9470 C   0  0  1  0  0  0  0  0  0  0  0  0
    4.5430  -33.3860  -33.8960 C   0  0  0  0  0  0  0  0  0  0  0  0
    3.8430  -33.8060  -35.2820 C   0  0  1  0  0  0  0  0  0  0  0  0
    6.9840  -32.3520  -32.1920 C   0  0  0  0  0  0  0  0  0  0  0  0
    8.3440  -32.2870  -31.5280 C   0  0  0  0  0  0  0  0  0  0  0  0
   12.9910  -33.1300  -28.6540 O   0  0  0  0  0  0  0  0  0  0  0  0
   10.4870  -35.5370  -33.7160 C   0  0  0  0  0  0  0  0  0  0  0  0
    9.1330  -37.4650  -34.3180 C   0  0  0  0  0  0  0  0  0  0  0  0
    4.0550  -32.3660  -33.1190 C   0  0  0  0  0  0  0  0  0  0  0  0
    1.7500  -34.0600  -36.3740 C   0  0  0  0  0  0  0  0  0  0  0  0
    5.9210  -31.4930  -31.6140 C   0  0  0  0  0  0  0  0  0  0  0  0
    9.5990  -34.2970  -31.9440 N   0  0  0  0  0  0  0  0  0  0  0  0
   11.5920  -33.8180  -32.3870 C   0  0  0  0  0  0  0  0  0  0  0  0
   12.5520  -33.7630  -33.2300 O   0  0  0  0  0  0  0  0  0  0  0  0
   11.6350  -37.5590  -34.5980 C   0  0  0  0  0  0  0  0  0  0  0  0
    3.8620  -35.1560  -35.7330 C   0  0  0  0  0  0  0  0  0  0  0  0
    4.6190  -31.5310  -32.1300 C   0  0  0  0  0  0  0  0  0  0  0  0
   11.8100  -33.0040  -31.3100 N   0  0  0  0  0  0  0  0  0  0  0  0
   11.0670  -34.3710  -29.8690 C   0  0  0  0  0  0  0  0  0  0  0  0
   11.6980  -36.1770  -34.1480 C   0  0  0  0  0  0  0  0  0  0  0  0
   10.6030  -34.5020  -32.8200 N   0  0  0  0  0  0  0  0  0  0  0  0
  1 20  1  0
  2 17  1  0
  3 21  1  0
  3 27  1  0
  4 21  1  0
  4  7  1  0
  5 26  2  0
  5 19  1  0
  6 18  1  0
  7  1  1  0
  8 10  1  0
  8 11  2  0
 10  9  1  1
 10 15  1  0
 11 23  1  0
 11 16  1  0
 12 30  1  1
 12  2  1  0
 13  9  2  0
 13 20  1  0
 14 27  1  1
 14  4  1  0
 14 13  1  0
 15 22  2  0
 15 16  1  0
 18 32  1  0
 19  6  2  0
 20 28  2  0
 24 29  1  0
 25 24  2  0
 26 31  1  0
 28 22  1  0
 29 12  1  0
 31 18  2  0
 32 24  1  0
 32 23  1  0
M  END
$$$$

     RDKit          3D

 34 40  0  0  0  0  0  0  0  0999 V2000
    9.5840  -35.8140  -32.9270 C   0  0  0  0  0  0  0  0  0  0  0  0
    6.8740  -31.6180  -31.4210 C   0  0  0  0  0  0  0  0  0  0  0  0
   11.6700  -32.0700  -28.1100 C   0  0  0  0  0  0  0  0  0  0  0  0
    5.7530  -32.2890  -33.1520 N   0  0  0  0  0  0  0  0  0  0  0  0
   10.4700  -36.1370  -34.0290 C   0  0  0  0  0  0  0  0  0  0  0  0
   12.7350  -33.9540  -29.7490 C   0  0  0  0  0  0  0  0  0  0  0  0
   10.9760  -32.4590  -29.2940 C   0  0  0  0  0  0  0  0  0  0  0  0
    5.1600  -35.5330  -36.0300 C   0  0  0  0  0  0  0  0  0  0  0  0
   11.4100  -33.5120  -32.5770 C   0  0  0  0  0  0  0  0  0  0  0  0
    6.8940  -32.5050  -32.5230 C   0  0  0  0  0  0  0  0  0  0  0  0
   10.6060  -33.8000  -31.3500 C   0  0  0  0  0  0  0  0  0  0  0  0
    5.4710  -34.8560  -35.1030 N   0  0  0  0  0  0  0  0  0  0  0  0
   12.8730  -32.6240  -27.7840 C   0  0  0  0  0  0  0  0  0  0  0  0
    4.9770  -33.0770  -33.8460 N   0  0  0  0  0  0  0  0  0  0  0  0
    5.5240  -33.9060  -34.3090 C   0  0  1  0  0  0  0  0  0  0  0  0
    1.7170  -34.2180  -37.2890 C   0  0  0  0  0  0  0  0  0  0  0  0
    8.6050  -34.6640  -33.3970 C   0  0  2  0  0  0  0  0  0  0  0  0
    7.8140  -31.5430  -30.6420 C   0  0  0  0  0  0  0  0  0  0  0  0
    2.4110  -34.4670  -38.7130 C   0  0  0  0  0  0  0  0  0  0  0  0
    8.0380  -33.3970  -32.7040 C   0  0  0  0  0  0  0  0  0  0  0  0
   13.4040  -33.5640  -28.5960 C   0  0  0  0  0  0  0  0  0  0  0  0
    2.6050  -34.4250  -36.2380 C   0  0  0  0  0  0  0  0  0  0  0  0
   11.5340  -33.3850  -30.1210 C   0  0  0  0  0  0  0  0  0  0  0  0
    8.9270  -32.2030  -30.6560 C   0  0  0  0  0  0  0  0  0  0  0  0
   11.4910  -35.4190  -34.1700 C   0  0  0  0  0  0  0  0  0  0  0  0
    4.5770  -33.6980  -37.4730 C   0  0  0  0  0  0  0  0  0  0  0  0
   11.8350  -34.1950  -33.3390 C   0  0  0  0  0  0  0  0  0  0  0  0
    4.0450  -34.6720  -36.4230 C   0  0  2  0  0  0  0  0  0  0  0  0
    9.7680  -31.7870  -29.6740 O   0  0  0  0  0  0  0  0  0  0  0  0
    3.8500  -34.3180  -38.7570 C   0  0  0  0  0  0  0  0  0  0  0  0
    9.1830  -33.2120  -31.4860 C   0  0  0  0  0  0  0  0  0  0  0  0
   14.5820  -34.0560  -28.2860 O   0  0  0  0  0  0  0  0  0  0  0  0
    7.7580  -35.1660  -34.2020 N   0  0  0  0  0  0  0  0  0  0  0  0
    6.5400  -34.7160  -34.2340 C   0  0  2  0  0  0  0  0  0  0  0  0
  2 18  1  0
  3 13  1  0
  4 10  1  0
  5  1  1  0
  6 21  1  0
  7  3  2  0
  8 12  1  0
  9 11  1  0
 10  2  2  0
 11 23  2  0
 12 15  1  0
 12 34  1  0
 14  4  1  0
 15 34  1  0
 15 14  1  1
 16 22  1  0
 17  1  1  1
 17 20  1  0
 19 16  1  0
 20 10  1  0
 20 31  2  0
 21 32  1  0
 21 13  2  0
 23  6  1  0
 23  7  1  0
 24 18  2  0
 24 29  1  0
 25  5  1  0
 25 27  2  3
 26 28  1  0
 27  9  1  0
 28 22  1  0
 28  8  1  6
 29  7  1  0
 30 19  2  0
 30 26  1  0
 31 11  1  0
 31 24  1  0
 33 17  1  0
 34 33  1  6
M  END
$$$$

     RDKit          3D

 23 27  0  0  0  0  0  0  0  0999 V2000
   10.6410  -36.5600  -32.9500 C   0  0  0  0  0  0  0  0  0  0  0  0
   11.6290  -32.5200  -28.2500 O   0  0  0  0  0  0  0  0  0  0  0  0
   11.0820  -32.7310  -29.5580 C   0  0  0  0  0  0  0  0  0  0  0  0
    8.1570  -33.9790  -33.3630 C   0  0  0  0  0  0  0  0  0  0  0  0
    7.2090  -35.6410  -35.0540 C   0  0  0  0  0  0  0  0  0  0  0  0
    9.5340  -36.1060  -33.8850 C   0  0  0  0  0  0  0  0  0  0  0  0
    7.2900  -31.6160  -30.7550 O   0  0  0  0  0  0  0  0  0  0  0  0
    6.0230  -35.6440  -35.6210 C   0  0  0  0  0  0  0  0  0  0  0  0
   11.9560  -33.1370  -30.4770 C   0  0  0  0  0  0  0  0  0  0  0  0
    9.7740  -32.4080  -29.8120 C   0  0  0  0  0  0  0  0  0  0  0  0
    7.2760  -34.6550  -34.2710 C   0  0  0  0  0  0  0  0  0  0  0  0
   12.3390  -33.4480  -32.8260 F   0  0  0  0  0  0  0  0  0  0  0  0
    7.8320  -32.3950  -31.4810 C   0  0  0  0  0  0  0  0  0  0  0  0
    6.0950  -33.0430  -33.2680 C   0  0  0  0  0  0  0  0  0  0  0  0
    6.1330  -34.0450  -34.2600 N   0  0  0  0  0  0  0  0  0  0  0  0
    7.4210  -33.0460  -32.7030 C   0  0  0  0  0  0  0  0  0  0  0  0
    9.2760  -32.7400  -31.0840 C   0  0  0  0  0  0  0  0  0  0  0  0
    9.5060  -33.9480  -33.0620 N   0  0  0  0  0  0  0  0  0  0  0  0
   10.1160  -33.3080  -32.0570 C   0  0  0  0  0  0  0  0  0  0  0  0
   10.2480  -34.3730  -34.0710 O   0  0  0  0  0  0  0  0  0  0  0  0
   11.5190  -33.2940  -31.8450 C   0  0  0  0  0  0  0  0  0  0  0  0
   10.7320  -35.7300  -34.0660 C   0  0  1  0  0  0  0  0  0  0  0  0
    5.3580  -34.6240  -35.0730 N   0  0  0  0  0  0  0  0  0  0  0  0
  3  2  1  0
  4 18  1  0
  4 16  2  0
  5 11  2  0
  6  1  1  0
  8 23  2  0
  8  5  1  0
  9  3  2  0
 10  3  1  0
 11 15  1  0
 11  4  1  0
 12 21  1  0
 13 17  1  0
 13  7  2  0
 14 16  1  0
 15 14  1  0
 16 13  1  0
 17 10  2  0
 18 19  1  0
 19 21  2  0
 19 17  1  0
 22 20  1  1
 20 18  1  0
 21  9  1  0
 22  6  1  0
 22  1  1  0
 23 15  1  0
M  END
$$$$

     RDKit          3D

 15 16  0  0  0  0  0  0  0  0999 V2000
   11.7600  -33.7450  -30.6830 C   0  0  0  0  0  0  0  0  0  0  0  0
    7.1740  -34.3740  -34.1360 C   0  0  1  0  0  0  0  0  0  0  0  0
    8.6300  -35.2220  -33.7610 C   0  0  0  0  0  0  0  0  0  0  0  0
    9.5580  -33.4950  -31.8930 C   0  0  0  0  0  0  0  0  0  0  0  0
    8.3160  -33.5750  -32.9430 C   0  0  0  0  0  0  0  0  0  0  0  0
    9.6540  -32.7170  -30.8900 C   0  0  0  0  0  0  0  0  0  0  0  0
    5.9850  -33.3160  -33.5490 C   0  0  0  0  0  0  0  0  0  0  0  0
    8.0790  -34.5450  -33.6440 C   0  0  0  0  0  0  0  0  0  0  0  0
    7.8460  -35.9630  -34.7630 C   0  0  0  0  0  0  0  0  0  0  0  0
    7.5620  -32.8260  -32.7400 C   0  0  0  0  0  0  0  0  0  0  0  0
   10.0890  -32.2370  -30.0500 C   0  0  0  0  0  0  0  0  0  0  0  0
    6.7010  -35.2210  -34.7910 C   0  0  0  0  0  0  0  0  0  0  0  0
    6.5190  -33.3100  -33.4340 C   0  0  0  0  0  0  0  0  0  0  0  0
   11.1480  -33.1460  -30.0820 C   0  0  0  0  0  0  0  0  0  0  0  0
   10.5110  -34.0550  -32.3560 C   0  0  0  0  0  0  0  0  0  0  0  0
  1 14  2  0
  2 12  1  1
  2  8  1  0
  2 13  1  0
  3  8  1  0
  4  6  1  0
  5 10  1  0
  5  4  1  0
  6 11  1  0
  7 13  2  0
  8  5  2  0
  9  3  1  0
 12  9  1  0
 13 10  1  0
 14 11  1  0
 15  4  2  0
M  END
$$$$

     RDKit          3D

 15 17  0  0  0  0  0  0  0  0999 V2000
    9.6040  -36.6330  -33.5660 C   0  0  0  0  0  0  0  0  0  0  0  0
    8.0080  -34.4070  -33.4140 C   0  0  0  0  0  0  0  0  0  0  0  0
    9.2030  -31.9770  -30.3820 O   0  0  0  0  0  0  0  0  0  0  0  0
    8.6250  -36.6780  -34.3440 C   0  0  0  0  0  0  0  0  0  0  0  0
    9.9160  -35.7860  -32.8280 C   0  0  0  0  0  0  0  0  0  0  0  0
    7.2490  -33.3070  -33.0050 C   0  0  0  0  0  0  0  0  0  0  0  0
    9.7790  -33.3970  -31.9790 C   0  0  0  0  0  0  0  0  0  0  0  0
    5.9560  -32.9420  -33.3570 C   0  0  0  0  0  0  0  0  0  0  0  0
    9.2290  -34.4990  -32.8760 C   0  0  0  0  0  0  0  0  0  0  0  0
    7.6230  -35.3830  -34.4000 C   0  0  0  0  0  0  0  0  0  0  0  0
    6.6150  -31.6030  -31.6780 N   0  0  0  0  0  0  0  0  0  0  0  0
    5.6780  -31.8450  -32.4830 C   0  0  0  0  0  0  0  0  0  0  0  0
    7.6160  -32.4250  -31.9840 C   0  0  1  0  0  0  0  0  0  0  0  0
    6.3680  -35.1690  -35.4880 Cl  0  0  0  0  0  0  0  0  0  0  0  0
    8.9100  -32.5920  -31.4070 C   0  0  0  0  0  0  0  0  0  0  0  0
  1  5  2  0
  2  6  1  0
  2  9  2  0
  4  1  1  0
  7 15  1  0
  8  6  2  0
  8 12  1  0
  9  5  1  0
  9  7  1  0
 10  4  2  0
 10  2  1  0
 12 11  2  0
 13  6  1  0
 13 11  1  1
 13 15  1  0
 14 10  1  0
 15  3  2  0
M  END
$$$$

     RDKit          3D

 14 14  0  0  0  0  0  0  0  0999 V2000
    7.7180  -35.2310  -35.0380 C   0  0  0  0  0  0  0  0  0  0  0  0
    9.7780  -35.3340  -32.3600 S   0  0  0  0  0  0  0  0  0  0  0  0
    7.4630  -31.8700  -32.3350 C   0  0  0  0  0  0  0  0  0  0  0  0
    6.1770  -35.1380  -35.3730 C   0  0  0  0  0  0  0  0  0  0  0  0
    8.9180  -35.1520  -33.4650 C   0  0  2  0  0  0  0  0  0  0  0  0
    9.3340  -34.0940  -32.6070 C   0  0  1  0  0  0  0  0  0  0  0  0
    7.5130  -35.6120  -34.3700 C   0  0  0  0  0  0  0  0  0  0  0  0
    6.7800  -34.1720  -33.5630 C   0  0  0  0  0  0  0  0  0  0  0  0
    8.9170  -33.5910  -33.3850 C   0  0  0  0  0  0  0  0  0  0  0  0
    9.9240  -32.8420  -31.8880 C   0  0  0  0  0  0  0  0  0  0  0  0
    6.6860  -35.0870  -34.5130 C   0  0  0  0  0  0  0  0  0  0  0  0
    8.3970  -35.9410  -34.0330 C   0  0  0  0  0  0  0  0  0  0  0  0
    6.8220  -34.6250  -34.2800 C   0  0  0  0  0  0  0  0  0  0  0  0
    7.6150  -33.3450  -32.9370 C   0  0  0  0  0  0  0  0  0  0  0  0
  1  7  2  0
  4 11  2  0
  5 12  1  1
  5  6  1  0
  5  2  1  0
  6  2  1  0
  6 10  1  6
  7 12  1  0
  9 14  1  0
  9  6  1  0
 11  7  1  0
 11 13  1  0
 13  8  2  0
 14  3  1  0
M  END
$$$$

     RDKit          3D

 16 17  0  0  0  0  0  0  0  0999 V2000
    5.5740  -32.9670  -33.6520 C   0  0  0  0  0  0  0  0  0  0  0  0
   11.1570  -35.5550  -33.7200 C   0  0  0  0  0  0  0  0  0  0  0  0
    4.6470  -34.1570  -35.3030 F   0  0  0  0  0  0  0  0  0  0  0  0
    8.7370  -33.1150  -32.2550 N   0  0  0  0  0  0  0  0  0  0  0  0
    7.6360  -31.6200  -31.0260 C   0  0  0  0  0  0  0  0  0  0  0  0
    8.8450  -32.1510  -31.3010 C   0  0  0  0  0  0  0  0  0  0  0  0
   10.8180  -33.7890  -31.4080 O   0  0  0  0  0  0  0  0  0  0  0  0
    7.7300  -34.3780  -33.7790 C   0  0  0  0  0  0  0  0  0  0  0  0
    6.5590  -31.7840  -31.7700 C   0  0  0  0  0  0  0  0  0  0  0  0
   11.5330  -34.6520  -33.4270 C   0  0  0  0  0  0  0  0  0  0  0  0
    9.9540  -33.8440  -32.3800 C   0  0  0  0  0  0  0  0  0  0  0  0
    6.5830  -32.7130  -32.7920 C   0  0  0  0  0  0  0  0  0  0  0  0
    7.7170  -33.3760  -32.9160 C   0  0  0  0  0  0  0  0  0  0  0  0
   10.4510  -34.2700  -33.5940 C   0  0  0  0  0  0  0  0  0  0  0  0
    6.5670  -34.6390  -34.5050 C   0  0  0  0  0  0  0  0  0  0  0  0
    5.6180  -33.8950  -34.4680 C   0  0  0  0  0  0  0  0  0  0  0  0
  1 12  1  0
  2 10  1  0
  3 16  1  0
  4  6  1  0
  6  5  2  0
  8 13  2  0
  9  5  1  0
 11  4  1  0
 11  7  2  0
 12  9  2  0
 13 12  1  0
 13  4  1  0
 14 10  1  0
 14 11  1  0
 15 16  2  0
 15  8  1  0
 16  1  1  0
M  END
$$$$

     RDKit          3D

 30 33  0  0  0  0  0  0  0  0999 V2000
    7.5580  -35.0540  -34.1070 C   0  0  0  0  0  0  0  0  0  0  0  0
   10.5970  -34.3490  -33.3710 C   0  0  0  0  0  0  0  0  0  0  0  0
   12.4130  -32.4160  -28.8050 F   0  0  0  0  0  0  0  0  0  0  0  0
    7.9940  -31.6870  -30.5900 C   0  0  0  0  0  0  0  0  0  0  0  0
    9.9190  -36.3380  -34.3620 O   0  0  0  0  0  0  0  0  0  0  0  0
    7.7790  -33.1340  -32.4860 C   0  0  2  0  0  0  0  0  0  0  0  0
   11.4350  -32.9150  -31.0520 C   0  0  0  0  0  0  0  0  0  0  0  0
    9.8370  -35.5290  -33.9800 C   0  0  0  0  0  0  0  0  0  0  0  0
    5.4800  -34.2040  -34.5820 C   0  0  0  0  0  0  0  0  0  0  0  0
    9.7740  -33.4170  -33.5620 O   0  0  0  0  0  0  0  0  0  0  0  0
    6.5980  -32.3800  -32.2210 C   0  0  0  0  0  0  0  0  0  0  0  0
    3.4740  -36.2310  -37.0250 C   0  0  0  0  0  0  0  0  0  0  0  0
   10.0250  -31.4630  -28.1630 F   0  0  0  0  0  0  0  0  0  0  0  0
   11.4780  -34.6020  -32.8600 O   0  0  0  0  0  0  0  0  0  0  0  0
   10.0200  -32.6690  -31.4150 C   0  0  1  0  0  0  0  0  0  0  0  0
    7.3650  -36.0250  -35.0440 C   0  0  0  0  0  0  0  0  0  0  0  0
   10.2500  -31.9690  -29.2920 C   0  0  0  0  0  0  0  0  0  0  0  0
    2.4360  -35.8390  -37.8920 O   0  0  0  0  0  0  0  0  0  0  0  0
    8.7510  -32.9190  -32.2540 C   0  0  2  0  0  0  0  0  0  0  0  0
    6.2230  -36.0080  -35.6900 C   0  0  0  0  0  0  0  0  0  0  0  0
    6.5070  -34.1830  -33.9200 C   0  0  0  0  0  0  0  0  0  0  0  0
   10.9020  -34.1560  -28.9430 F   0  0  0  0  0  0  0  0  0  0  0  0
    5.2710  -35.0930  -35.5630 C   0  0  0  0  0  0  0  0  0  0  0  0
    7.4000  -34.1670  -33.4340 N   0  0  0  0  0  0  0  0  0  0  0  0
    7.0450  -31.6180  -31.0630 N   0  0  0  0  0  0  0  0  0  0  0  0
    2.8980  -34.2680  -35.6750 O   0  0  0  0  0  0  0  0  0  0  0  0
    4.0200  -34.9090  -36.3970 C   0  0  2  0  0  0  0  0  0  0  0  0
    9.3430  -32.0430  -30.4280 C   0  0  0  0  0  0  0  0  0  0  0  0
   11.3490  -32.8500  -29.5240 C   0  0  2  0  0  0  0  0  0  0  0  0
    4.3000  -33.9580  -37.4470 C   0  0  0  0  0  0  0  0  0  0  0  0
  1 21  1  0
  1 24  1  0
  2 14  2  0
  4 28  1  0
  5  8  2  0
  6 24  1  6
  6 19  1  0
  6 11  1  0
  7 29  1  0
  8  2  1  0
  9 21  2  0
 10  2  1  0
 11 25  1  0
 12 27  1  0
 15  7  1  1
 15 28  1  0
 16  1  2  0
 17 13  1  0
 18 12  1  0
 19 10  1  6
 19 15  1  0
 20 23  2  0
 20 16  1  0
 21 24  1  0
 23  9  1  0
 25  4  1  0
 27 30  1  6
 27 26  1  0
 27 23  1  0
 28 17  2  0
 29 17  1  0
 29 22  1  1
 29  3  1  0
M  END
$$$$

     RDKit          3D

 30 33  0  0  0  0  0  0  0  0999 V2000
   10.3270  -33.3000  -30.1400 C   0  0  0  0  0  0  0  0  0  0  0  0
    7.0420  -35.2570  -34.7240 N   0  0  0  0  0  0  0  0  0  0  0  0
   10.2550  -33.5070  -31.4360 C   0  0  2  0  0  0  0  0  0  0  0  0
   11.6760  -34.2370  -33.1860 C   0  0  0  0  0  0  0  0  0  0  0  0
    5.0370  -34.9060  -36.9680 C   0  0  0  0  0  0  0  0  0  0  0  0
    3.8110  -34.3380  -37.6310 C   0  0  1  0  0  0  0  0  0  0  0  0
    9.6330  -35.4370  -33.8270 C   0  0  2  0  0  0  0  0  0  0  0  0
   13.1730  -32.9850  -28.1220 F   0  0  0  0  0  0  0  0  0  0  0  0
    9.2860  -32.9970  -29.1570 C   0  0  0  0  0  0  0  0  0  0  0  0
    7.2700  -34.1740  -33.7920 C   0  0  0  0  0  0  0  0  0  0  0  0
   11.6160  -33.1720  -29.7910 C   0  0  0  0  0  0  0  0  0  0  0  0
    6.3000  -34.8540  -35.0870 C   0  0  0  0  0  0  0  0  0  0  0  0
    5.1080  -34.5080  -35.3810 C   0  0  0  0  0  0  0  0  0  0  0  0
    4.0100  -33.5790  -33.5810 O   0  0  0  0  0  0  0  0  0  0  0  0
    2.4410  -36.2380  -36.7750 C   0  0  0  0  0  0  0  0  0  0  0  0
    8.9920  -33.4370  -32.0930 C   0  0  0  0  0  0  0  0  0  0  0  0
    2.6990  -33.7590  -35.6930 C   0  0  0  0  0  0  0  0  0  0  0  0
    3.8080  -34.5900  -39.1540 O   0  0  0  0  0  0  0  0  0  0  0  0
   12.3720  -33.5990  -30.7900 N   0  0  0  0  0  0  0  0  0  0  0  0
    8.9280  -34.2150  -33.2410 C   0  0  1  0  0  0  0  0  0  0  0  0
    1.4140  -34.3380  -37.6440 C   0  0  0  0  0  0  0  0  0  0  0  0
    7.8390  -36.4760  -34.8750 C   0  0  0  0  0  0  0  0  0  0  0  0
   11.1800  -35.2000  -33.9530 C   0  0  0  0  0  0  0  0  0  0  0  0
   11.3540  -33.9010  -31.8500 C   0  0  1  0  0  0  0  0  0  0  0  0
    4.0520  -33.9070  -34.7220 C   0  0  0  0  0  0  0  0  0  0  0  0
   12.0570  -32.5490  -28.5600 C   0  0  1  0  0  0  0  0  0  0  0  0
    9.1720  -36.0470  -35.0780 C   0  0  0  0  0  0  0  0  0  0  0  0
    2.5810  -34.7500  -36.9830 C   0  0  1  0  0  0  0  0  0  0  0  0
   11.2790  -32.7070  -27.5330 F   0  0  0  0  0  0  0  0  0  0  0  0
   12.1430  -31.2280  -28.7420 F   0  0  0  0  0  0  0  0  0  0  0  0
  1 11  2  0
  1  9  1  0
  2 10  1  0
  3 16  1  1
  3  1  1  0
  5 13  1  0
  6 18  1  6
  6 28  1  0
  6  5  1  0
  7 27  1  6
  7 20  1  0
 11 26  1  0
 12  2  1  0
 13 12  1  0
 13 25  1  0
 17 25  1  0
 19 11  1  0
 20 10  1  1
 20 16  1  0
 28 21  1  6
 22  2  1  0
 23  7  1  0
 23  4  1  0
 24  4  1  6
 24  3  1  0
 24 19  1  0
 25 14  2  0
 26  8  1  1
 26 29  1  0
 27 22  1  0
 28 15  1  0
 28 17  1  0
 30 26  1  0
M  END
$$$$

     RDKit          3D

 29 33  0  0  0  0  0  0  0  0999 V2000
   12.6620  -31.6960  -27.9450 O   0  0  0  0  0  0  0  0  0  0  0  0
   10.2270  -35.8920  -33.2990 C   0  0  0  0  0  0  0  0  0  0  0  0
    5.4310  -34.7710  -35.5150 C   0  0  1  0  0  0  0  0  0  0  0  0
    3.1650  -34.8290  -35.9100 C   0  0  0  0  0  0  0  0  0  0  0  0
    9.2780  -32.8180  -31.0530 C   0  0  0  0  0  0  0  0  0  0  0  0
    1.9200  -34.6030  -36.6470 C   0  0  0  0  0  0  0  0  0  0  0  0
    9.3630  -36.6010  -34.1900 C   0  0  0  0  0  0  0  0  0  0  0  0
   10.8540  -33.8520  -30.1380 C   0  0  2  0  0  0  0  0  0  0  0  0
    1.7870  -34.3300  -37.8950 C   0  0  0  0  0  0  0  0  0  0  0  0
    4.3230  -34.9130  -36.6380 C   0  0  2  0  0  0  0  0  0  0  0  0
   12.0430  -32.5290  -28.3870 C   0  0  1  0  0  0  0  0  0  0  0  0
   10.9480  -34.4730  -31.5200 C   0  0  0  0  0  0  0  0  0  0  0  0
    6.7760  -31.8260  -31.9590 C   0  0  0  0  0  0  0  0  0  0  0  0
    2.9380  -34.3970  -38.6220 C   0  0  0  0  0  0  0  0  0  0  0  0
    6.9070  -33.8130  -33.5990 C   0  0  0  0  0  0  0  0  0  0  0  0
    8.5450  -32.9130  -32.4420 C   0  0  1  0  0  0  0  0  0  0  0  0
    5.2150  -33.9120  -38.7310 O   0  0  0  0  0  0  0  0  0  0  0  0
    5.7970  -35.4070  -36.5970 C   0  0  0  0  0  0  0  0  0  0  0  0
    3.9770  -34.7820  -37.8250 C   0  0  1  0  0  0  0  0  0  0  0  0
    8.1340  -35.8830  -34.2840 C   0  0  0  0  0  0  0  0  0  0  0  0
   10.3550  -33.6040  -30.3880 C   0  0  0  0  0  0  0  0  0  0  0  0
   11.9280  -33.5810  -29.6260 C   0  0  0  0  0  0  0  0  0  0  0  0
    9.7780  -34.7960  -32.5190 C   0  0  0  0  0  0  0  0  0  0  0  0
    8.0430  -34.5430  -33.8100 C   0  0  2  0  0  0  0  0  0  0  0  0
    9.9620  -37.1140  -34.6640 O   0  0  0  0  0  0  0  0  0  0  0  0
    5.6500  -33.8510  -34.1390 C   0  0  0  0  0  0  0  0  0  0  0  0
   12.6040  -32.9100  -27.5920 O   0  0  0  0  0  0  0  0  0  0  0  0
    8.7850  -34.2420  -32.8050 C   0  0  2  0  0  0  0  0  0  0  0  0
    7.2550  -32.9050  -32.6960 C   0  0  0  0  0  0  0  0  0  0  0  0
  1 27  1  0
  2 23  1  0
  3 26  1  6
  5 21  1  0
  6  4  1  0
  7  2  1  0
  8 12  1  6
  8 22  1  0
  9  6  2  0
 10 18  1  6
 10  4  1  0
 10  3  1  0
 11  1  1  0
 11 27  1  0
 14  9  1  0
 14 19  1  0
 15 29  2  0
 16  5  1  1
 18  3  1  0
 19 17  1  1
 19 10  1  0
 20  7  1  0
 21  8  1  0
 11 22  1  6
 24 20  1  1
 24 15  1  0
 24 28  1  0
 25  7  2  0
 26 15  1  0
 28 23  1  6
 28 16  1  0
 29 16  1  0
 29 13  1  0
M  END
$$$$

     RDKit          3D

 19 21  0  0  0  0  0  0  0  0999 V2000
    7.3500  -33.3620  -32.8060 C   0  0  0  0  0  0  0  0  0  0  0  0
    3.9160  -35.5670  -36.1130 C   0  0  0  0  0  0  0  0  0  0  0  0
    5.6020  -34.7950  -37.5370 C   0  0  0  0  0  0  0  0  0  0  0  0
    7.3320  -31.3100  -30.9190 C   0  0  0  0  0  0  0  0  0  0  0  0
    8.7950  -36.9270  -34.4810 C   0  0  0  0  0  0  0  0  0  0  0  0
    9.5060  -32.1780  -30.2910 O   0  0  0  0  0  0  0  0  0  0  0  0
   10.5890  -33.8900  -31.8430 O   0  0  0  0  0  0  0  0  0  0  0  0
    7.0870  -35.2540  -34.5150 C   0  0  0  0  0  0  0  0  0  0  0  0
    7.7350  -34.5250  -33.5670 C   0  0  0  0  0  0  0  0  0  0  0  0
    7.6170  -36.4960  -34.9220 C   0  0  0  0  0  0  0  0  0  0  0  0
    8.3940  -33.0440  -31.9960 C   0  0  0  0  0  0  0  0  0  0  0  0
    8.9820  -34.9050  -33.1990 C   0  0  0  0  0  0  0  0  0  0  0  0
    5.9140  -34.7830  -35.1190 O   0  0  0  0  0  0  0  0  0  0  0  0
    6.2300  -32.5620  -32.7500 C   0  0  0  0  0  0  0  0  0  0  0  0
    6.2260  -31.4930  -31.8450 C   0  0  0  0  0  0  0  0  0  0  0  0
    8.4430  -32.1890  -31.0300 C   0  0  0  0  0  0  0  0  0  0  0  0
    9.4870  -33.9700  -32.2820 C   0  0  0  0  0  0  0  0  0  0  0  0
    9.5510  -36.0920  -33.6380 C   0  0  0  0  0  0  0  0  0  0  0  0
    5.1130  -34.5720  -36.1380 C   0  0  2  0  0  0  0  0  0  0  0  0
  1 14  2  0
  1 11  1  0
 19  3  1  6
  5 18  1  0
  8  9  2  0
  9 12  1  0
  9  1  1  0
 10  8  1  0
 10  5  2  0
 11 16  2  0
 12 17  1  0
 13  8  1  0
 14 15  1  0
 15  4  2  0
 16  4  1  0
 16  6  1  0
 17 11  1  0
 17  7  2  0
 18 12  2  0
 19  2  1  0
 19 13  1  0
M  END
$$$$

     RDKit          3D

 19 24  0  0  0  0  0  0  0  0999 V2000
    9.4860  -32.8600  -31.5610 C   0  0  1  0  0  0  0  0  0  0  0  0
    2.1560  -34.4590  -35.9260 O   0  0  0  0  0  0  0  0  0  0  0  0
    7.2930  -31.6870  -31.0810 C   0  0  0  0  0  0  0  0  0  0  0  0
    7.9920  -33.5790  -32.9600 C   0  0  2  0  0  0  0  0  0  0  0  0
    3.5070  -34.5960  -35.8330 C   0  0  0  0  0  0  0  0  0  0  0  0
    5.4650  -33.4860  -33.6590 C   0  0  0  0  0  0  0  0  0  0  0  0
    6.6580  -32.0800  -32.1070 C   0  0  0  0  0  0  0  0  0  0  0  0
    9.2590  -33.8070  -32.5000 C   0  0  2  0  0  0  0  0  0  0  0  0
   11.0010  -33.8410  -30.8590 C   0  0  0  0  0  0  0  0  0  0  0  0
    8.9000  -34.4870  -33.7420 C   0  0  0  0  0  0  0  0  0  0  0  0
    4.1380  -33.3370  -33.8890 C   0  0  0  0  0  0  0  0  0  0  0  0
   10.2650  -33.6840  -31.6070 C   0  0  1  0  0  0  0  0  0  0  0  0
    9.9930  -34.7410  -33.5660 C   0  0  0  0  0  0  0  0  0  0  0  0
    6.7260  -33.2040  -33.0690 C   0  0  1  0  0  0  0  0  0  0  0  0
   10.6720  -33.8910  -31.4270 S   0  0  0  0  0  0  0  0  0  0  0  0
    8.5610  -32.0850  -31.1310 C   0  0  2  0  0  0  0  0  0  0  0  0
    4.0850  -33.3820  -35.3020 C   0  0  0  0  0  0  0  0  0  0  0  0
    9.7590  -34.9510  -32.4390 S   0  0  2  0  0  0  0  0  0  0  0  0
    8.5890  -32.8980  -32.2720 C   0  0  2  0  0  0  0  0  0  0  0  0
  1 16  1  1
  2  5  1  0
 19  4  1  1
  5 17  1  0
 14  6  1  1
  7  3  1  0
  8 18  1  6
  8 19  1  0
  8 12  1  0
  8  1  1  0
 10 13  1  0
  4 10  1  6
 11  6  1  0
 12  1  1  0
 12 15  1  6
 18 13  1  6
 14  4  1  0
 14  7  1  0
 15  9  2  0
 16  3  1  1
 17 11  1  0
 18 12  1  0
 19  1  1  0
 19 16  1  0
M  END
$$$$

     RDKit          3D

 27 31  0  0  0  0  0  0  0  0999 V2000
    5.4940  -34.5370  -34.6710 N   0  0  0  0  0  0  0  0  0  0  0  0
    9.5750  -33.0660  -31.8980 C   0  0  0  0  0  0  0  0  0  0  0  0
    9.4340  -35.4530  -33.1870 C   0  0  1  0  0  0  0  0  0  0  0  0
    2.5460  -34.7570  -36.3760 C   0  0  0  0  0  0  0  0  0  0  0  0
    7.2400  -35.9350  -34.8770 C   0  0  0  0  0  0  0  0  0  0  0  0
    5.8620  -33.0080  -33.0310 C   0  0  0  0  0  0  0  0  0  0  0  0
    9.2050  -35.4870  -32.3230 S   0  0  0  0  0  0  0  0  0  0  0  0
   10.3040  -32.3630  -29.8050 C   0  0  0  0  0  0  0  0  0  0  0  0
   10.8700  -34.2940  -33.4870 C   0  0  0  0  0  0  0  0  0  0  0  0
    7.1640  -32.8050  -32.6530 C   0  0  0  0  0  0  0  0  0  0  0  0
   10.0960  -34.9830  -32.9380 C   0  0  0  0  0  0  0  0  0  0  0  0
   10.8880  -33.8270  -32.0340 C   0  0  0  0  0  0  0  0  0  0  0  0
   10.8450  -34.9710  -34.1100 S   0  0  0  0  0  0  0  0  0  0  0  0
    8.8400  -35.5370  -34.4260 C   0  0  1  0  0  0  0  0  0  0  0  0
    5.2630  -33.8560  -33.9800 C   0  0  1  0  0  0  0  0  0  0  0  0
   11.5840  -32.9150  -29.9850 C   0  0  0  0  0  0  0  0  0  0  0  0
   11.7810  -33.7730  -31.0890 C   0  0  0  0  0  0  0  0  0  0  0  0
    2.4470  -36.0320  -36.8010 C   0  0  0  0  0  0  0  0  0  0  0  0
    4.7760  -35.3760  -35.7470 N   0  0  0  0  0  0  0  0  0  0  0  0
    4.0010  -33.5410  -34.5280 C   0  0  0  0  0  0  0  0  0  0  0  0
    3.7080  -34.4900  -35.3600 C   0  0  1  0  0  0  0  0  0  0  0  0
    7.8020  -34.7250  -34.2920 C   0  0  2  0  0  0  0  0  0  0  0  0
    6.8050  -31.5670  -31.7380 C   0  0  0  0  0  0  0  0  0  0  0  0
    9.3940  -32.5470  -30.8140 C   0  0  0  0  0  0  0  0  0  0  0  0
   10.9830  -34.6540  -33.2310 C   0  0  2  0  0  0  0  0  0  0  0  0
    8.5260  -33.1810  -33.0420 C   0  0  2  0  0  0  0  0  0  0  0  0
    8.0210  -34.6130  -33.1100 C   0  0  2  0  0  0  0  0  0  0  0  0
  1 15  1  0
  2 24  2  0
  3 27  1  0
  3 11  1  0
  3  7  1  1
  6 10  2  3
 10 23  1  0
 12  2  1  0
 12 17  2  0
 13  9  1  0
 14  5  1  1
 14 22  1  0
 14  3  1  0
 15  6  1  0
 16  8  2  0
 17 16  1  0
 18  4  1  0
 19 21  1  0
 19  1  1  0
 15 20  1  6
 21  4  1  6
 21 20  1  0
 22  5  1  1
 22 27  1  0
 24  8  1  0
 25  9  1  6
 25 11  1  0
 25 12  1  0
 26 10  1  1
 26  2  1  0
 27 26  1  6
M  END
$$$$

     RDKit          3D

 16 17  0  0  0  0  0  0  0  0999 V2000
    8.1500  -33.0180  -32.8760 C   0  0  0  0  0  0  0  0  0  0  0  0
   10.7270  -33.7750  -29.7640 C   0  0  0  0  0  0  0  0  0  0  0  0
   12.4340  -33.6040  -31.3800 C   0  0  0  0  0  0  0  0  0  0  0  0
    3.7870  -33.3970  -34.2630 C   0  0  0  0  0  0  0  0  0  0  0  0
    9.8530  -33.4810  -30.8290 C   0  0  0  0  0  0  0  0  0  0  0  0
    3.7180  -33.2420  -33.4450 C   0  0  0  0  0  0  0  0  0  0  0  0
    9.4780  -33.4260  -33.1490 O   0  0  0  0  0  0  0  0  0  0  0  0
   10.2930  -33.4470  -32.1370 C   0  0  0  0  0  0  0  0  0  0  0  0
    7.8110  -34.5990  -34.4770 O   0  0  0  0  0  0  0  0  0  0  0  0
    5.2840  -34.6250  -34.7530 C   0  0  0  0  0  0  0  0  0  0  0  0
    6.0520  -33.8690  -33.9240 C   0  0  0  0  0  0  0  0  0  0  0  0
    5.2390  -33.0200  -33.3070 C   0  0  0  0  0  0  0  0  0  0  0  0
   11.5880  -33.3820  -32.5160 C   0  0  0  0  0  0  0  0  0  0  0  0
    4.1180  -34.5260  -34.3410 N   0  0  0  0  0  0  0  0  0  0  0  0
   12.0230  -33.7470  -30.1030 C   0  0  0  0  0  0  0  0  0  0  0  0
    7.2940  -33.7910  -33.8310 C   0  0  0  0  0  0  0  0  0  0  0  0
  3 15  2  0
  4  6  1  0
  5  2  2  0
  6 12  1  0
  7  1  1  0
  7  8  1  0
  8  5  1  0
  9 16  2  0
 10 14  1  0
 10 11  1  0
 11 16  1  0
 11 12  2  0
 13  8  2  0
 13  3  1  0
 14  4  1  0
 15  2  1  0
 16  1  1  0
M  END
$$$$

     RDKit          3D

 28 31  0  0  0  0  0  0  0  0999 V2000
    6.7500  -32.1560  -31.8350 C   0  0  0  0  0  0  0  0  0  0  0  0
    8.9520  -34.8780  -33.6820 C   0  0  0  0  0  0  0  0  0  0  0  0
    1.7000  -31.2020  -31.5720 N   0  0  0  0  0  0  0  0  0  0  0  0
   12.6180  -35.2700  -34.2380 C   0  0  0  0  0  0  0  0  0  0  0  0
   -0.3210  -29.7490  -32.2660 C   0  0  0  0  0  0  0  0  0  0  0  0
   12.1540  -32.9400  -32.6200 C   0  0  0  0  0  0  0  0  0  0  0  0
    1.5130  -31.6050  -32.8100 C   0  0  0  0  0  0  0  0  0  0  0  0
    3.7280  -32.7390  -33.0600 C   0  0  0  0  0  0  0  0  0  0  0  0
    5.6320  -31.3250  -30.3740 O   0  0  0  0  0  0  0  0  0  0  0  0
   -0.0170  -31.0820  -33.4780 S   0  0  0  0  0  0  0  0  0  0  0  0
    0.7160  -30.1010  -31.2290 C   0  0  0  0  0  0  0  0  0  0  0  0
   10.9770  -33.7940  -33.3370 C   0  0  2  0  0  0  0  0  0  0  0  0
   10.2050  -34.7860  -33.7350 C   0  0  0  0  0  0  0  0  0  0  0  0
   13.7020  -34.7280  -34.1350 O   0  0  0  0  0  0  0  0  0  0  0  0
    3.0570  -30.8850  -30.0100 O   0  0  0  0  0  0  0  0  0  0  0  0
    8.3140  -32.0320  -31.7810 C   0  0  0  0  0  0  0  0  0  0  0  0
    5.4170  -32.0510  -31.4940 C   0  0  2  0  0  0  0  0  0  0  0  0
   12.5650  -36.3760  -34.8560 O   0  0  0  0  0  0  0  0  0  0  0  0
    2.8890  -31.3870  -31.0790 C   0  0  0  0  0  0  0  0  0  0  0  0
   12.5590  -33.6720  -31.6520 O   0  0  0  0  0  0  0  0  0  0  0  0
   11.2760  -34.8550  -33.8630 C   0  0  0  0  0  0  0  0  0  0  0  0
    3.9580  -32.0370  -31.9400 C   0  0  2  0  0  0  0  0  0  0  0  0
    6.3600  -32.9070  -33.9830 F   0  0  0  0  0  0  0  0  0  0  0  0
    2.3140  -32.4370  -33.6080 C   0  0  0  0  0  0  0  0  0  0  0  0
    8.9560  -32.8420  -32.5110 C   0  0  0  0  0  0  0  0  0  0  0  0
    7.7850  -34.4580  -33.5190 O   0  0  0  0  0  0  0  0  0  0  0  0
    8.3230  -33.6720  -33.2300 C   0  0  0  0  0  0  0  0  0  0  0  0
    6.1530  -32.6960  -32.7060 C   0  0  1  0  0  0  0  0  0  0  0  0
  1 16  1  0
  1 17  1  0
  2 26  1  0
  3 11  1  0
  3 19  1  0
  4 14  1  0
  4 21  1  0
  5 11  1  0
  6 20  1  0
  7  3  1  0
 10  7  1  0
 10  5  1  0
 12  6  1  1
 13  2  1  0
 13 12  1  0
 17  9  1  1
 18  4  2  0
 19 15  2  0
 21 13  2  0
 21 12  1  0
 22  8  1  1
 22 17  1  0
 22 19  1  0
 24  8  1  0
 24  7  2  0
 25 16  2  3
 26 27  1  0
 27 25  1  0
 28 23  1  6
 28  1  1  0
 28 17  1  0
M  END
$$$$

     RDKit          3D

 18 22  0  0  0  0  0  0  0  0999 V2000
    9.8000  -32.3460  -30.1670 C   0  0  0  0  0  0  0  0  0  0  0  0
   10.2110  -33.8200  -32.0840 C   0  0  2  0  0  0  0  0  0  0  0  0
   11.5000  -32.3800  -28.4290 O   0  0  0  0  0  0  0  0  0  0  0  0
    8.8270  -35.3840  -33.1370 C   0  0  1  0  0  0  0  0  0  0  0  0
   11.6620  -33.6200  -31.9240 C   0  0  0  0  0  0  0  0  0  0  0  0
    8.6380  -33.2110  -32.2810 C   0  0  1  0  0  0  0  0  0  0  0  0
    8.3390  -35.4830  -33.6510 C   0  0  0  0  0  0  0  0  0  0  0  0
   10.3410  -35.1790  -33.1790 C   0  0  1  0  0  0  0  0  0  0  0  0
   12.0020  -33.2400  -30.7160 C   0  0  0  0  0  0  0  0  0  0  0  0
    8.0920  -34.0670  -33.0150 C   0  0  0  0  0  0  0  0  0  0  0  0
    9.5460  -32.7230  -31.3440 C   0  0  1  0  0  0  0  0  0  0  0  0
    9.4950  -36.8890  -33.3430 C   0  0  0  0  0  0  0  0  0  0  0  0
   11.0970  -35.0540  -34.1890 C   0  0  0  0  0  0  0  0  0  0  0  0
   10.8210  -35.9740  -33.9980 C   0  0  2  0  0  0  0  0  0  0  0  0
   11.0560  -32.7070  -29.7740 C   0  0  0  0  0  0  0  0  0  0  0  0
    9.8090  -36.0980  -33.7560 C   0  0  1  0  0  0  0  0  0  0  0  0
   11.6800  -37.0280  -34.0630 C   0  0  0  0  0  0  0  0  0  0  0  0
    7.5460  -31.9010  -31.9770 C   0  0  0  0  0  0  0  0  0  0  0  0
  1 15  1  0
  2  5  1  6
  2 11  1  0
  4  7  1  6
  4 10  1  0
  5  9  1  0
  6  2  1  0
  6 18  1  6
  6 11  1  0
  8 13  1  1
  8  4  1  0
  9 15  2  0
 10  6  1  0
 11  1  1  1
 13 14  1  0
 14 17  1  1
 14 16  1  0
 14  8  1  0
 15  3  1  0
 16 12  1  1
 16  8  1  0
 16  4  1  0
M  END
$$$$

     RDKit          3D

 16 20  0  0  0  0  0  0  0  0999 V2000
    9.9020  -35.6220  -33.2510 C   0  0  1  0  0  0  0  0  0  0  0  0
   11.0700  -32.9950  -30.0310 C   0  0  0  0  0  0  0  0  0  0  0  0
    7.0700  -34.4670  -34.2190 C   0  0  1  0  0  0  0  0  0  0  0  0
    6.0360  -35.2170  -34.9100 C   0  0  0  0  0  0  0  0  0  0  0  0
    7.9670  -35.4150  -34.1330 C   0  0  0  0  0  0  0  0  0  0  0  0
   11.0400  -34.7290  -33.3540 C   0  0  2  0  0  0  0  0  0  0  0  0
   10.8320  -33.4110  -31.4180 C   0  0  2  0  0  0  0  0  0  0  0  0
   12.2270  -33.5370  -32.6840 S   0  0  0  0  0  0  0  0  0  0  0  0
    6.9210  -33.3730  -33.4700 C   0  0  0  0  0  0  0  0  0  0  0  0
    9.2210  -34.3050  -33.0160 C   0  0  2  0  0  0  0  0  0  0  0  0
    9.8000  -34.3160  -33.5810 C   0  0  2  0  0  0  0  0  0  0  0  0
    5.0250  -34.3470  -34.5410 N   0  0  0  0  0  0  0  0  0  0  0  0
    9.2090  -35.7640  -33.7020 S   0  0  1  0  0  0  0  0  0  0  0  0
    7.9160  -34.2000  -33.6560 C   0  0  2  0  0  0  0  0  0  0  0  0
    8.8820  -34.8130  -33.9030 C   0  0  0  0  0  0  0  0  0  0  0  0
    9.6380  -33.0850  -32.1030 C   0  0  0  0  0  0  0  0  0  0  0  0
  3  5  1  0
  3 14  1  0
  3  9  1  0
  4 12  1  0
  3  4  1  6
 13  5  1  1
  5 14  1  0
  6  1  1  0
  6  8  1  1
  7  2  1  1
  8  7  1  0
 10 16  1  6
 11  6  1  0
 11  1  1  0
 11 10  1  1
  1 13  1  6
 14  9  1  1
 15 13  1  0
 15 10  1  0
 16  7  1  0
M  END
$$$$

     RDKit          3D

 30 33  0  0  0  0  0  0  0  0999 V2000
   10.3410  -36.3260  -35.0800 C   0  0  0  0  0  0  0  0  0  0  0  0
    4.7800  -31.9850  -32.3310 C   0  0  2  0  0  0  0  0  0  0  0  0
    5.4300  -31.9930  -31.1960 F   0  0  0  0  0  0  0  0  0  0  0  0
   12.7580  -32.5060  -29.4380 O   0  0  0  0  0  0  0  0  0  0  0  0
    9.6880  -34.7050  -33.3700 C   0  0  0  0  0  0  0  0  0  0  0  0
    8.3630  -32.2370  -31.1250 C   0  0  0  0  0  0  0  0  0  0  0  0
    3.4030  -32.1460  -32.3260 C   0  0  0  0  0  0  0  0  0  0  0  0
    7.5350  -32.3490  -31.7780 C   0  0  0  0  0  0  0  0  0  0  0  0
   10.6600  -32.2370  -30.2640 C   0  0  1  0  0  0  0  0  0  0  0  0
   11.5520  -31.8300  -27.9160 O   0  0  0  0  0  0  0  0  0  0  0  0
   11.5540  -33.4130  -31.7810 N   0  0  0  0  0  0  0  0  0  0  0  0
    2.7870  -32.7920  -33.5410 C   0  0  0  0  0  0  0  0  0  0  0  0
    5.4850  -33.1840  -32.7690 C   0  0  1  0  0  0  0  0  0  0  0  0
    8.8580  -35.9510  -34.8450 C   0  0  0  0  0  0  0  0  0  0  0  0
    2.6420  -31.5960  -31.5490 O   0  0  0  0  0  0  0  0  0  0  0  0
    5.1730  -33.3950  -34.2840 C   0  0  1  0  0  0  0  0  0  0  0  0
   11.0290  -34.7880  -33.6610 C   0  0  0  0  0  0  0  0  0  0  0  0
    8.9090  -35.2930  -33.9420 C   0  0  0  0  0  0  0  0  0  0  0  0
    6.5660  -33.7030  -32.9650 C   0  0  0  0  0  0  0  0  0  0  0  0
    5.2380  -34.1670  -35.4080 F   0  0  0  0  0  0  0  0  0  0  0  0
   11.7490  -34.2630  -32.7190 C   0  0  0  0  0  0  0  0  0  0  0  0
    9.3090  -31.3160  -29.6250 S   0  0  0  0  0  0  0  0  0  0  0  0
    7.2870  -34.2870  -33.6340 N   0  0  0  0  0  0  0  0  0  0  0  0
   11.6730  -32.1980  -29.2560 C   0  0  0  0  0  0  0  0  0  0  0  0
    3.8640  -32.6840  -34.6430 C   0  0  0  0  0  0  0  0  0  0  0  0
   11.1840  -35.7450  -34.3080 C   0  0  0  0  0  0  0  0  0  0  0  0
   10.4940  -32.8930  -31.3770 C   0  0  0  0  0  0  0  0  0  0  0  0
    7.7770  -33.6520  -33.2890 C   0  0  0  0  0  0  0  0  0  0  0  0
    9.0160  -34.0880  -32.9180 C   0  0  2  0  0  0  0  0  0  0  0  0
    9.3050  -33.0940  -31.6360 C   0  0  0  0  0  0  0  0  0  0  0  0
  1 14  1  0
  1 26  1  0
  2  7  1  0
  2  3  1  1
  4 24  2  0
  5 29  1  0
  6 22  1  0
  7 15  2  0
  8  6  2  0
  9 22  1  0
  9 24  1  1
 11 27  1  0
 12  7  1  0
 13 19  1  6
 13  2  1  0
 14 18  1  0
 16 20  1  1
 16 13  1  0
 17  5  2  0
 17 21  1  0
 18  5  1  0
 21 11  2  0
 23 28  1  0
 23 19  1  0
 24 10  1  0
 25 16  1  0
 25 12  1  0
 26 17  1  0
 27  9  1  0
 29 28  1  6
 29 30  1  0
 30 27  2  0
 30  6  1  0
M  END
$$$$

     RDKit          3D

 16 17  0  0  0  0  0  0  0  0999 V2000
    9.7690  -35.7290  -33.4380 C   0  0  0  0  0  0  0  0  0  0  0  0
    7.4110  -34.6800  -33.9190 C   0  0  0  0  0  0  0  0  0  0  0  0
   11.0570  -33.7340  -33.1180 C   0  0  0  0  0  0  0  0  0  0  0  0
    8.8500  -36.3620  -34.2600 C   0  0  0  0  0  0  0  0  0  0  0  0
    9.6810  -34.3680  -32.9970 C   0  0  0  0  0  0  0  0  0  0  0  0
    6.2430  -31.2920  -32.2170 O   0  0  0  0  0  0  0  0  0  0  0  0
    6.1400  -34.1880  -34.1720 C   0  0  0  0  0  0  0  0  0  0  0  0
    8.5630  -31.6910  -30.8130 O   0  0  0  0  0  0  0  0  0  0  0  0
    7.8780  -32.8960  -32.5120 C   0  0  1  0  0  0  0  0  0  0  0  0
    8.3460  -34.0020  -33.1830 C   0  0  0  0  0  0  0  0  0  0  0  0
    9.8060  -33.0420  -31.2940 O   0  0  0  0  0  0  0  0  0  0  0  0
   10.8110  -33.1470  -30.3770 C   0  0  0  0  0  0  0  0  0  0  0  0
    6.6120  -32.3680  -32.7350 C   0  0  0  0  0  0  0  0  0  0  0  0
    7.7280  -35.8590  -34.5830 N   0  0  0  0  0  0  0  0  0  0  0  0
    8.7610  -32.5380  -31.5790 C   0  0  0  0  0  0  0  0  0  0  0  0
    5.6570  -32.9440  -33.5560 C   0  0  0  0  0  0  0  0  0  0  0  0
  1  5  2  0
  2 10  2  0
  3  5  1  0
  4  1  1  0
  7  2  1  0
  7 16  2  0
  9 15  1  1
 10  5  1  0
 10  9  1  0
 11 12  1  0
 13  9  1  0
 13  6  2  0
 14  4  2  0
 14  2  1  0
 15 11  1  0
 15  8  2  0
 16 13  1  0
M  END
$$$$

     RDKit          3D

 25 29  0  0  0  0  0  0  0  0999 V2000
   10.3750  -34.8400  -34.0790 C   0  0  0  0  0  0  0  0  0  0  0  0
    7.4030  -34.4110  -34.0340 C   0  0  0  0  0  0  0  0  0  0  0  0
    2.2710  -32.4000  -33.1960 C   0  0  0  0  0  0  0  0  0  0  0  0
    6.1520  -33.9170  -33.9250 C   0  0  0  0  0  0  0  0  0  0  0  0
   11.7950  -34.6890  -33.9880 C   0  0  0  0  0  0  0  0  0  0  0  0
    9.3060  -32.9590  -31.5100 C   0  0  0  0  0  0  0  0  0  0  0  0
   11.4510  -33.5980  -32.0340 C   0  0  2  0  0  0  0  0  0  0  0  0
    4.6550  -32.5560  -32.7120 C   0  0  0  0  0  0  0  0  0  0  0  0
   12.2260  -34.0510  -32.9660 C   0  0  0  0  0  0  0  0  0  0  0  0
    2.1490  -31.6200  -32.0340 C   0  0  0  0  0  0  0  0  0  0  0  0
    3.1710  -31.3030  -31.2300 N   0  0  0  0  0  0  0  0  0  0  0  0
    8.3240  -33.9890  -33.2580 C   0  0  0  0  0  0  0  0  0  0  0  0
   13.2600  -33.3990  -30.3440 C   0  0  0  0  0  0  0  0  0  0  0  0
    8.1330  -33.1040  -32.2980 C   0  0  0  0  0  0  0  0  0  0  0  0
    3.6030  -32.8150  -33.5380 C   0  0  0  0  0  0  0  0  0  0  0  0
    6.8630  -32.5520  -32.1840 C   0  0  0  0  0  0  0  0  0  0  0  0
   11.9330  -32.8280  -29.7660 C   0  0  0  0  0  0  0  0  0  0  0  0
   10.2650  -33.5850  -32.2670 N   0  0  0  0  0  0  0  0  0  0  0  0
    5.3040  -34.3360  -34.6840 F   0  0  0  0  0  0  0  0  0  0  0  0
   11.6540  -32.4830  -28.4540 C   0  0  0  0  0  0  0  0  0  0  0  0
    5.9150  -32.9540  -32.9570 C   0  0  0  0  0  0  0  0  0  0  0  0
   11.5040  -32.3630  -27.4650 N   0  0  0  0  0  0  0  0  0  0  0  0
   12.2220  -33.1030  -31.0080 C   0  0  2  0  0  0  0  0  0  0  0  0
    4.4760  -31.6870  -31.6160 C   0  0  0  0  0  0  0  0  0  0  0  0
    9.7110  -34.2520  -33.2310 C   0  0  0  0  0  0  0  0  0  0  0  0
  1  5  1  0
  1 25  2  0
  2  4  2  0
  2 12  1  0
  3 10  2  0
  4 21  1  0
  5  9  2  0
  7  9  1  0
  7 23  1  0
  8 24  1  0
 10 11  1  0
 12 25  1  0
 12 14  2  0
 13 17  1  0
 14 16  1  0
 14  6  1  0
 15  3  1  0
 15  8  2  0
 17 20  1  0
  7 18  1  6
 18  6  1  0
 19  4  1  0
 20 22  3  0
 21  8  1  0
 21 16  2  0
 23 13  1  1
 23 17  1  0
 24 11  2  0
 25 18  1  0
M  END
$$$$

     RDKit          3D

 33 37  0  0  0  0  0  0  0  0999 V2000
    4.8800  -35.0620  -36.1760 C   0  0  0  0  0  0  0  0  0  0  0  0
    5.6800  -34.6000  -35.2050 C   0  0  0  0  0  0  0  0  0  0  0  0
    2.6800  -36.4980  -37.1330 O   0  0  0  0  0  0  0  0  0  0  0  0
    5.8080  -32.2910  -32.2760 C   0  0  0  0  0  0  0  0  0  0  0  0
   11.8900  -34.1860  -30.2960 C   0  0  0  0  0  0  0  0  0  0  0  0
    7.4310  -33.6530  -33.4060 C   0  0  0  0  0  0  0  0  0  0  0  0
    0.1810  -35.2030  -36.8860 N   0  0  0  0  0  0  0  0  0  0  0  0
    3.0780  -33.8680  -35.1840 C   0  0  0  0  0  0  0  0  0  0  0  0
    3.8090  -33.3650  -34.1770 C   0  0  0  0  0  0  0  0  0  0  0  0
   13.2670  -33.5830  -32.7900 C   0  0  0  0  0  0  0  0  0  0  0  0
   10.1600  -32.6490  -30.2130 C   0  0  0  0  0  0  0  0  0  0  0  0
   11.8790  -34.3260  -32.9440 C   0  0  2  0  0  0  0  0  0  0  0  0
    9.6900  -35.9820  -33.9980 C   0  0  0  0  0  0  0  0  0  0  0  0
    9.6770  -33.9620  -32.8600 C   0  0  0  0  0  0  0  0  0  0  0  0
   10.9160  -33.5800  -30.9260 C   0  0  0  0  0  0  0  0  0  0  0  0
    3.5310  -34.6730  -36.2280 C   0  0  0  0  0  0  0  0  0  0  0  0
    1.3570  -34.7610  -37.6500 C   0  0  0  0  0  0  0  0  0  0  0  0
   10.7770  -33.8850  -32.2530 C   0  0  0  0  0  0  0  0  0  0  0  0
    2.6110  -35.3460  -37.0360 C   0  0  0  0  0  0  0  0  0  0  0  0
   10.7410  -32.1640  -29.0470 C   0  0  0  0  0  0  0  0  0  0  0  0
    8.4270  -33.3290  -32.5580 C   0  0  0  0  0  0  0  0  0  0  0  0
   12.6750  -35.5340  -33.1030 C   0  0  0  0  0  0  0  0  0  0  0  0
    6.1290  -33.1940  -33.3000 C   0  0  0  0  0  0  0  0  0  0  0  0
   12.5350  -33.3530  -29.3810 C   0  0  0  0  0  0  0  0  0  0  0  0
   11.9610  -32.4730  -28.6510 C   0  0  0  0  0  0  0  0  0  0  0  0
    8.9400  -32.2190  -30.4450 N   0  0  0  0  0  0  0  0  0  0  0  0
    8.8430  -36.0990  -35.2340 C   0  0  0  0  0  0  0  0  0  0  0  0
   -0.2310  -36.4720  -37.5140 C   0  0  0  0  0  0  0  0  0  0  0  0
   11.3730  -34.3930  -34.3830 C   0  0  0  0  0  0  0  0  0  0  0  0
    8.1020  -32.4660  -31.4380 C   0  0  0  0  0  0  0  0  0  0  0  0
    9.8460  -34.5770  -34.1340 C   0  0  1  0  0  0  0  0  0  0  0  0
    6.7560  -32.0090  -31.3540 C   0  0  0  0  0  0  0  0  0  0  0  0
    5.1870  -33.6420  -34.1640 C   0  0  0  0  0  0  0  0  0  0  0  0
  1  2  2  0
  2 33  1  0
  3 19  2  0
  4 32  1  0
  5 24  1  0
  6 23  1  0
  6 21  2  0
  8  9  1  0
  9 33  2  0
 11 20  1  0
 12 10  1  6
 12 18  1  0
 14 21  1  0
 14 18  2  0
 15  5  1  0
 15 11  2  0
 16  1  1  0
 16  8  2  0
 17 19  1  0
 17  7  1  0
 18 15  1  0
 19 16  1  0
 20 25  1  0
 21 30  1  0
 22 12  1  0
 23  4  2  0
 24 25  1  0
 26 11  1  0
 27 13  1  0
 28  7  1  0
 29 31  1  0
 29 12  1  0
 30 32  1  0
 30 26  2  0
 31 13  1  1
 31 14  1  0
 33 23  1  0
M  END
$$$$

     RDKit          3D

 22 24  0  0  0  0  0  0  0  0999 V2000
    9.4590  -32.8950  -30.8790 C   0  0  0  0  0  0  0  0  0  0  0  0
    9.3310  -35.5970  -34.6410 C   0  0  0  0  0  0  0  0  0  0  0  0
    6.7080  -35.0510  -34.9680 C   0  0  0  0  0  0  0  0  0  0  0  0
    7.2670  -31.7780  -31.3000 C   0  0  0  0  0  0  0  0  0  0  0  0
   12.5200  -33.1890  -31.6990 C   0  0  0  0  0  0  0  0  0  0  0  0
    5.4200  -33.2370  -33.4590 C   0  0  0  0  0  0  0  0  0  0  0  0
    5.1500  -31.2270  -31.4910 C   0  0  0  0  0  0  0  0  0  0  0  0
    8.8840  -33.1470  -31.9260 N   0  0  0  0  0  0  0  0  0  0  0  0
   11.8140  -33.5120  -33.0620 C   0  0  0  0  0  0  0  0  0  0  0  0
    6.2080  -31.3050  -30.9630 N   0  0  0  0  0  0  0  0  0  0  0  0
   10.2500  -32.9450  -30.1570 O   0  0  0  0  0  0  0  0  0  0  0  0
    9.6660  -33.9460  -32.8410 C   0  0  2  0  0  0  0  0  0  0  0  0
    7.3600  -34.3950  -33.9140 C   0  0  0  0  0  0  0  0  0  0  0  0
    4.7690  -33.8800  -34.3850 C   0  0  0  0  0  0  0  0  0  0  0  0
   10.0580  -35.1510  -35.5930 O   0  0  0  0  0  0  0  0  0  0  0  0
    8.7520  -34.7270  -33.6890 C   0  0  0  0  0  0  0  0  0  0  0  0
    7.6130  -32.6460  -32.3610 C   0  0  0  0  0  0  0  0  0  0  0  0
    8.4090  -31.4330  -30.5750 O   0  0  0  0  0  0  0  0  0  0  0  0
   10.7370  -34.4080  -32.5990 C   0  0  0  0  0  0  0  0  0  0  0  0
    5.4130  -34.7640  -35.1650 C   0  0  0  0  0  0  0  0  0  0  0  0
    9.3210  -36.8380  -34.3910 O   0  0  0  0  0  0  0  0  0  0  0  0
    6.7880  -33.3670  -33.2290 C   0  0  0  0  0  0  0  0  0  0  0  0
  1 18  1  0
  1 11  2  0
  2 21  1  0
  2 16  1  0
  3 13  1  0
  4 10  2  3
  4 18  1  0
  6 22  1  0
  7 10  1  0
  8  1  1  0
  9 19  1  0
  9  5  1  0
 12 19  1  1
 12  8  1  0
 13 16  2  0
 13 22  1  0
 14  6  2  0
 15  2  2  0
 16 12  1  0
 17  8  1  0
 17  4  1  0
 20  3  2  0
 20 14  1  0
 22 17  2  0
M  END
$$$$

     RDKit          3D

 36 43  0  0  0  0  0  0  0  0999 V2000
    6.9330  -33.0990  -33.2220 C   0  0  0  0  0  0  0  0  0  0  0  0
   10.6060  -34.6480  -32.5330 C   0  0  0  0  0  0  0  0  0  0  0  0
    6.2660  -31.5720  -31.0510 N   0  0  0  0  0  0  0  0  0  0  0  0
   10.1340  -33.9130  -31.5000 C   0  0  0  0  0  0  0  0  0  0  0  0
    5.8350  -35.3870  -36.4070 C   0  0  0  0  0  0  0  0  0  0  0  0
    3.8740  -31.7780  -31.4470 C   0  0  0  0  0  0  0  0  0  0  0  0
    5.2350  -32.0550  -31.7290 C   0  0  1  0  0  0  0  0  0  0  0  0
    3.1050  -32.6610  -33.5900 C   0  0  0  0  0  0  0  0  0  0  0  0
   10.3120  -35.7530  -33.0200 C   0  0  1  0  0  0  0  0  0  0  0  0
    7.4500  -32.1510  -31.2550 C   0  0  0  0  0  0  0  0  0  0  0  0
    3.2420  -33.9280  -35.7240 C   0  0  1  0  0  0  0  0  0  0  0  0
   11.3410  -32.5800  -28.5310 C   0  0  0  0  0  0  0  0  0  0  0  0
    7.9090  -32.8020  -32.1270 C   0  0  1  0  0  0  0  0  0  0  0  0
   12.7470  -34.0570  -29.6760 C   0  0  0  0  0  0  0  0  0  0  0  0
    8.9480  -32.2060  -31.0080 S   0  0  0  0  0  0  0  0  0  0  0  0
    4.5510  -33.8420  -35.0790 C   0  0  0  0  0  0  0  0  0  0  0  0
   12.2960  -32.3080  -27.5850 C   0  0  0  0  0  0  0  0  0  0  0  0
    4.9100  -35.6730  -37.4500 O   0  0  0  0  0  0  0  0  0  0  0  0
    3.6800  -33.7860  -37.0660 C   0  0  0  0  0  0  0  0  0  0  0  0
    7.5200  -35.7350  -35.4790 C   0  0  1  0  0  0  0  0  0  0  0  0
    3.6410  -35.2100  -37.0110 C   0  0  2  0  0  0  0  0  0  0  0  0
    4.5380  -32.8490  -34.1010 N   0  0  0  0  0  0  0  0  0  0  0  0
   11.5850  -33.5200  -29.5290 C   0  0  0  0  0  0  0  0  0  0  0  0
   10.6060  -33.8870  -30.3260 O   0  0  0  0  0  0  0  0  0  0  0  0
    3.1840  -31.5470  -32.5150 C   0  0  0  0  0  0  0  0  0  0  0  0
    9.4510  -36.5070  -34.0570 C   0  0  0  0  0  0  0  0  0  0  0  0
   11.4420  -36.0450  -33.7800 O   0  0  0  0  0  0  0  0  0  0  0  0
    5.5770  -34.6450  -35.4590 C   0  0  0  0  0  0  0  0  0  0  0  0
    8.8730  -33.9120  -31.8690 N   0  0  0  0  0  0  0  0  0  0  0  0
   11.9760  -34.7260  -33.9430 C   0  0  0  0  0  0  0  0  0  0  0  0
    7.1090  -35.8010  -36.4200 N   0  0  0  0  0  0  0  0  0  0  0  0
   13.6080  -32.9160  -27.7940 C   0  0  0  0  0  0  0  0  0  0  0  0
   13.7570  -33.7650  -28.8860 C   0  0  0  0  0  0  0  0  0  0  0  0
    8.7460  -36.0840  -35.1160 C   0  0  0  0  0  0  0  0  0  0  0  0
    6.8460  -34.8890  -34.6750 C   0  0  0  0  0  0  0  0  0  0  0  0
    5.5980  -32.7470  -33.0410 C   0  0  0  0  0  0  0  0  0  0  0  0
  1 36  2  0
  2 30  1  0
  2  4  1  0
  4 24  1  0
  5 28  1  0
  7  6  1  6
  7  3  1  0
  8 25  1  0
  9 26  1  6
  9  2  1  0
 10  3  1  0
 10 15  2  0
 11 19  1  6
 11 16  1  0
 12 17  2  0
 13  1  1  0
 13 29  1  0
 13 10  1  1
 14 23  2  0
 14 33  1  0
 16 22  1  0
 18 21  1  0
 18  5  1  0
 20 34  1  6
 20 35  1  0
 21 19  1  6
 21 11  1  0
 22  8  1  0
 22 36  1  0
 23 12  1  0
 24 23  1  0
 25  6  1  0
 27  9  1  0
 28 16  1  0
 28 35  1  0
 29  4  2  3
 30 27  1  0
 31  5  2  0
 31 20  1  0
 32 17  1  0
 33 32  2  0
 34 26  1  0
 36  7  1  0
M  END
$$$$

     RDKit          3D

 23 26  0  0  0  0  0  0  0  0999 V2000
    5.9940  -33.1180  -33.5070 C   0  0  0  0  0  0  0  0  0  0  0  0
    4.0660  -32.1410  -32.2370 O   0  0  0  0  0  0  0  0  0  0  0  0
   11.0400  -33.7000  -30.7640 C   0  0  0  0  0  0  0  0  0  0  0  0
    7.8520  -31.8090  -30.7450 C   0  0  0  0  0  0  0  0  0  0  0  0
    5.9530  -34.0650  -34.1920 C   0  0  0  0  0  0  0  0  0  0  0  0
    4.6770  -32.2360  -31.4630 C   0  0  0  0  0  0  0  0  0  0  0  0
   10.9480  -34.0380  -32.2740 C   0  0  0  0  0  0  0  0  0  0  0  0
    8.7470  -34.2650  -33.0870 C   0  0  2  0  0  0  0  0  0  0  0  0
    6.9060  -31.6670  -31.3760 C   0  0  2  0  0  0  0  0  0  0  0  0
    5.7840  -31.4360  -31.3310 C   0  0  0  0  0  0  0  0  0  0  0  0
   11.3250  -32.8920  -29.8500 C   0  0  1  0  0  0  0  0  0  0  0  0
    9.0310  -32.5160  -31.0800 C   0  0  0  0  0  0  0  0  0  0  0  0
    7.9550  -33.3050  -32.6730 C   0  0  0  0  0  0  0  0  0  0  0  0
    8.2650  -32.7940  -31.5560 C   0  0  0  0  0  0  0  0  0  0  0  0
   11.2140  -34.5050  -33.1040 C   0  0  0  0  0  0  0  0  0  0  0  0
   10.3640  -33.9310  -32.9370 C   0  0  2  0  0  0  0  0  0  0  0  0
   10.7870  -34.3370  -33.0690 C   0  0  0  0  0  0  0  0  0  0  0  0
   10.8830  -31.7580  -29.2260 C   0  0  0  0  0  0  0  0  0  0  0  0
    7.0660  -32.7690  -32.7360 C   0  0  0  0  0  0  0  0  0  0  0  0
    8.4020  -34.8450  -34.2690 C   0  0  0  0  0  0  0  0  0  0  0  0
   11.0360  -32.5160  -28.1520 C   0  0  0  0  0  0  0  0  0  0  0  0
    7.0230  -34.6630  -34.6130 C   0  0  0  0  0  0  0  0  0  0  0  0
   10.1610  -33.8380  -31.6640 C   0  0  1  0  0  0  0  0  0  0  0  0
  1 19  1  0
  2  6  2  0
 11  3  1  6
  5  1  1  0
  6 10  1  0
  8 20  1  6
  8 16  1  0
  8 13  1  0
  9 10  1  1
  9  4  1  0
 11 18  1  0
 11 21  1  0
 13 14  1  0
 14 12  1  0
 14  4  2  0
 15 17  1  0
 16 17  1  1
 16 23  1  0
 17  7  1  0
 18 21  1  0
 19 13  2  0
 19  9  1  0
 22 20  1  0
 22  5  1  0
 23 12  1  0
 23  3  1  1
M  END
$$$$

     RDKit          3D

 27 30  0  0  0  0  0  0  0  0999 V2000
    9.8470  -36.6390  -32.9770 O   0  0  0  0  0  0  0  0  0  0  0  0
    3.1260  -34.1120  -37.9620 C   0  0  0  0  0  0  0  0  0  0  0  0
   11.2810  -32.9310  -30.5190 C   0  0  1  0  0  0  0  0  0  0  0  0
    7.3570  -31.6740  -31.2240 C   0  0  0  0  0  0  0  0  0  0  0  0
    2.7690  -33.1840  -35.5450 C   0  0  0  0  0  0  0  0  0  0  0  0
    5.6410  -32.8930  -33.3990 C   0  0  0  0  0  0  0  0  0  0  0  0
    8.2730  -35.1810  -33.8780 C   0  0  0  0  0  0  0  0  0  0  0  0
    1.8880  -34.4230  -37.3770 O   0  0  0  0  0  0  0  0  0  0  0  0
    9.8670  -35.3290  -35.1020 C   0  0  0  0  0  0  0  0  0  0  0  0
   11.3480  -34.1690  -32.5610 C   0  0  0  0  0  0  0  0  0  0  0  0
    9.9770  -32.6120  -30.7570 C   0  0  0  0  0  0  0  0  0  0  0  0
    8.2750  -35.6690  -35.0870 C   0  0  0  0  0  0  0  0  0  0  0  0
    1.5620  -33.7140  -36.1950 C   0  0  0  0  0  0  0  0  0  0  0  0
    4.2760  -34.2920  -36.9020 C   0  0  0  0  0  0  0  0  0  0  0  0
    7.8830  -32.7710  -32.1550 C   0  0  0  0  0  0  0  0  0  0  0  0
    6.0960  -34.6560  -34.5660 C   0  0  0  0  0  0  0  0  0  0  0  0
    6.9380  -33.2480  -33.0490 C   0  0  0  0  0  0  0  0  0  0  0  0
    5.0440  -31.9570  -32.8450 O   0  0  0  0  0  0  0  0  0  0  0  0
    3.8630  -34.0760  -35.4370 C   0  0  1  0  0  0  0  0  0  0  0  0
    9.2380  -33.2490  -31.8340 C   0  0  0  0  0  0  0  0  0  0  0  0
    5.0700  -33.7490  -34.4890 C   0  0  1  0  0  0  0  0  0  0  0  0
   12.0620  -33.4330  -31.5160 C   0  0  0  0  0  0  0  0  0  0  0  0
   11.9070  -32.6080  -29.3410 O   0  0  0  0  0  0  0  0  0  0  0  0
    7.1490  -34.4110  -33.7630 C   0  0  0  0  0  0  0  0  0  0  0  0
    9.9670  -34.2510  -32.3410 C   0  0  0  0  0  0  0  0  0  0  0  0
    9.4590  -35.2960  -33.0680 C   0  0  1  0  0  0  0  0  0  0  0  0
    6.0570  -35.6820  -35.2850 O   0  0  0  0  0  0  0  0  0  0  0  0
  2  8  1  0
  2 14  1  0
  3 23  1  6
 19  5  1  6
  6 17  1  0
  6 18  2  0
  7 24  2  0
  7 26  1  0
  8 13  1  0
  9 12  1  0
 10 25  1  0
 10 22  1  0
 11  3  1  0
 12  7  1  0
 13  5  1  0
 14 19  1  0
 15 20  1  0
 15  4  1  0
 21 16  1  1
 16 24  1  0
 17 15  2  0
 20 11  1  0
 21 19  1  0
 21  6  1  0
 22  3  1  0
 24 17  1  0
 25 20  2  0
 26  1  1  1
 26 25  1  0
 27 16  2  0
M  END
$$$$

     RDKit          3D

 18 20  0  0  0  0  0  0  0  0999 V2000
    9.9100  -34.9000  -33.1240 C   0  0  0  0  0  0  0  0  0  0  0  0
    9.5630  -32.8910  -31.7080 C   0  0  0  0  0  0  0  0  0  0  0  0
    6.6910  -31.6510  -31.5020 S   0  0  0  0  0  0  0  0  0  0  0  0
    8.6570  -34.3220  -33.2110 C   0  0  0  0  0  0  0  0  0  0  0  0
   11.3520  -36.2820  -34.4660 C   0  0  0  0  0  0  0  0  0  0  0  0
   10.1590  -36.1310  -33.7940 C   0  0  0  0  0  0  0  0  0  0  0  0
   11.8400  -32.8030  -31.0930 F   0  0  0  0  0  0  0  0  0  0  0  0
    6.6350  -34.5330  -34.3220 C   0  0  0  0  0  0  0  0  0  0  0  0
    6.4170  -32.9100  -32.7410 C   0  0  0  0  0  0  0  0  0  0  0  0
    4.5750  -33.3330  -33.9470 C   0  0  0  0  0  0  0  0  0  0  0  0
   10.8330  -33.4030  -31.7810 C   0  0  0  0  0  0  0  0  0  0  0  0
    5.2070  -32.5620  -33.0490 N   0  0  0  0  0  0  0  0  0  0  0  0
    7.2340  -35.3690  -34.9630 O   0  0  0  0  0  0  0  0  0  0  0  0
   10.9350  -34.3930  -32.5640 C   0  0  0  0  0  0  0  0  0  0  0  0
    8.5640  -33.3080  -32.4890 C   0  0  0  0  0  0  0  0  0  0  0  0
    5.2740  -34.3070  -34.6950 C   0  0  0  0  0  0  0  0  0  0  0  0
    3.2060  -33.0700  -34.1630 N   0  0  0  0  0  0  0  0  0  0  0  0
    7.3450  -33.7850  -33.2960 C   0  0  1  0  0  0  0  0  0  0  0  0
  1 14  2  0
  4  1  1  0
  4 15  2  0
  5  6  2  0
  6  1  1  0
  9  3  2  0
 10 12  2  0
 11  2  2  0
 11  7  1  0
 12  9  1  0
 13  8  2  0
 14 11  1  0
 15  2  1  0
 16  8  1  0
 16 10  1  0
 17 10  1  0
 18  8  1  6
 18  4  1  0
 18  9  1  0
 18 15  1  0
M  END
$$$$

     RDKit          3D

 34 39  0  0  0  0  0  0  0  0999 V2000
    9.8120  -31.2120  -29.2180 C   0  0  0  0  0  0  0  0  0  0  0  0
    3.3150  -34.7480  -36.1770 C   0  0  2  0  0  0  0  0  0  0  0  0
   12.9800  -34.4300  -33.6140 C   0  0  0  0  0  0  0  0  0  0  0  0
    6.8430  -31.9250  -31.9010 O   0  0  0  0  0  0  0  0  0  0  0  0
    9.0160  -36.7070  -35.0900 O   0  0  0  0  0  0  0  0  0  0  0  0
    5.0530  -34.5400  -34.9110 O   0  0  0  0  0  0  0  0  0  0  0  0
    7.4700  -33.7220  -33.5740 C   0  0  1  0  0  0  0  0  0  0  0  0
    7.7800  -34.7670  -34.4910 N   0  0  0  0  0  0  0  0  0  0  0  0
    7.5050  -32.7420  -32.3640 C   0  0  0  0  0  0  0  0  0  0  0  0
    7.2060  -35.2830  -35.4290 C   0  0  1  0  0  0  0  0  0  0  0  0
   10.7360  -34.1500  -33.1130 C   0  0  0  0  0  0  0  0  0  0  0  0
    4.4910  -33.5640  -35.5080 C   0  0  2  0  0  0  0  0  0  0  0  0
    3.0980  -33.4000  -33.2860 C   0  0  0  0  0  0  0  0  0  0  0  0
    9.0160  -35.4980  -34.3980 C   0  0  0  0  0  0  0  0  0  0  0  0
   11.1770  -35.7230  -34.6880 C   0  0  0  0  0  0  0  0  0  0  0  0
   10.8340  -31.5200  -27.3360 O   0  0  0  0  0  0  0  0  0  0  0  0
    3.6280  -34.6560  -38.5870 O   0  0  0  0  0  0  0  0  0  0  0  0
    9.4420  -33.5170  -32.3210 C   0  0  2  0  0  0  0  0  0  0  0  0
    2.7980  -33.0920  -34.8250 S   0  0  2  0  0  0  0  0  0  0  0  0
    8.6010  -33.3990  -32.9860 C   0  0  1  0  0  0  0  0  0  0  0  0
   12.4130  -32.5660  -32.0800 C   0  0  0  0  0  0  0  0  0  0  0  0
   12.5450  -35.5390  -34.3560 C   0  0  0  0  0  0  0  0  0  0  0  0
    8.8050  -31.8470  -30.4550 C   0  0  0  0  0  0  0  0  0  0  0  0
    9.5800  -32.7830  -30.8880 C   0  0  0  0  0  0  0  0  0  0  0  0
   10.7560  -31.8260  -28.8270 C   0  0  0  0  0  0  0  0  0  0  0  0
   10.3350  -35.1120  -34.1320 C   0  0  0  0  0  0  0  0  0  0  0  0
    5.4540  -34.8250  -37.5540 C   0  0  0  0  0  0  0  0  0  0  0  0
    6.3450  -33.3420  -33.8690 O   0  0  0  0  0  0  0  0  0  0  0  0
    5.7310  -35.8220  -36.9090 C   0  0  2  0  0  0  0  0  0  0  0  0
    3.9680  -34.7420  -37.5530 C   0  0  0  0  0  0  0  0  0  0  0  0
    2.4000  -34.5200  -35.7510 C   0  0  0  0  0  0  0  0  0  0  0  0
   11.9270  -33.7340  -32.8650 C   0  0  0  0  0  0  0  0  0  0  0  0
    5.6750  -35.5920  -35.6320 C   0  0  2  0  0  0  0  0  0  0  0  0
    7.4240  -35.5970  -36.5480 O   0  0  0  0  0  0  0  0  0  0  0  0
  1 25  1  0
  2 31  1  6
  2 12  1  0
  3 32  2  0
  5 14  2  0
  7 28  1  6
  7 20  1  0
  7  9  1  0
  8 14  1  0
  8  7  1  0
  9  4  2  0
 10  8  1  6
 11 32  1  0
 11 18  1  0
 12  6  1  1
 12 19  1  0
 14 26  1  0
 15 22  2  0
 15 26  1  0
 17 30  2  0
 18 24  1  6
 19 13  1  1
 20  9  1  1
 20 18  1  0
 22  3  1  0
 23  1  1  0
 24 23  1  0
 25 16  1  0
 26 11  2  0
 27 30  1  0
 29 27  1  6
 29 34  1  0
 29 33  1  0
 30  2  1  0
 31 19  1  0
 32 21  1  0
 33 10  1  0
 33  6  1  6
 34 10  1  0
M  END
$$$$

     RDKit          3D

 18 22  0  0  0  0  0  0  0  0999 V2000
    9.5200  -34.1980  -32.6450 C   0  0  0  0  0  0  0  0  0  0  0  0
   10.3800  -32.9910  -30.3040 C   0  0  0  0  0  0  0  0  0  0  0  0
   11.0890  -33.8550  -30.8590 C   0  0  0  0  0  0  0  0  0  0  0  0
    5.5720  -32.5940  -33.3720 C   0  0  0  0  0  0  0  0  0  0  0  0
    8.7120  -33.4060  -32.0330 C   0  0  0  0  0  0  0  0  0  0  0  0
    7.2270  -34.1560  -33.6190 C   0  0  0  0  0  0  0  0  0  0  0  0
    9.5450  -35.2070  -33.5780 O   0  0  0  0  0  0  0  0  0  0  0  0
    6.6540  -35.5510  -35.3700 N   0  0  0  0  0  0  0  0  0  0  0  0
    5.7180  -34.6460  -35.0680 C   0  0  1  0  0  0  0  0  0  0  0  0
    6.7520  -32.0960  -32.5010 C   0  0  0  0  0  0  0  0  0  0  0  0
    4.6100  -34.8150  -36.0020 C   0  0  0  0  0  0  0  0  0  0  0  0
    3.8580  -34.5030  -34.8620 C   0  0  0  0  0  0  0  0  0  0  0  0
    7.6600  -35.2220  -34.4200 C   0  0  0  0  0  0  0  0  0  0  0  0
   10.9150  -34.2500  -32.0650 C   0  0  0  0  0  0  0  0  0  0  0  0
    8.9440  -35.7300  -34.3730 C   0  0  0  0  0  0  0  0  0  0  0  0
    6.1260  -33.7500  -34.1120 C   0  0  0  0  0  0  0  0  0  0  0  0
    9.0550  -32.7300  -30.9620 C   0  0  0  0  0  0  0  0  0  0  0  0
    7.5650  -33.2280  -32.6280 N   0  0  0  0  0  0  0  0  0  0  0  0
  1 14  2  0
  1  5  1  0
  3  2  2  0
  4 10  1  0
  5 17  2  0
  6 18  1  0
  7  1  1  0
  8  9  1  0
  8 13  2  0
  9 12  1  1
  9 16  1  0
 11  9  1  0
 11 12  1  0
 13 15  1  0
 13  6  1  0
 14  3  1  0
 15  7  1  0
 16  6  2  0
 16  4  1  0
 17  2  1  0
 18 10  1  0
 18  5  1  0
M  END
$$$$

     RDKit          3D

 33 37  0  0  0  0  0  0  0  0999 V2000
    7.9000  -35.0420  -34.5300 C   0  0  1  0  0  0  0  0  0  0  0  0
   11.2530  -33.4380  -31.8060 C   0  0  0  0  0  0  0  0  0  0  0  0
   12.8330  -34.2350  -33.2820 O   0  0  0  0  0  0  0  0  0  0  0  0
    6.5680  -35.6730  -34.8320 C   0  0  0  0  0  0  0  0  0  0  0  0
    6.7660  -33.2020  -33.3330 C   0  0  0  0  0  0  0  0  0  0  0  0
   11.7880  -33.7960  -32.8520 C   0  0  0  0  0  0  0  0  0  0  0  0
   12.0970  -33.2830  -29.5290 C   0  0  0  0  0  0  0  0  0  0  0  0
    7.9340  -34.0080  -33.3560 C   0  0  2  0  0  0  0  0  0  0  0  0
   13.4250  -32.4750  -27.7790 O   0  0  0  0  0  0  0  0  0  0  0  0
    3.7260  -34.5290  -36.5170 C   0  0  2  0  0  0  0  0  0  0  0  0
    5.6180  -33.6670  -33.9840 C   0  0  0  0  0  0  0  0  0  0  0  0
    6.4990  -36.8060  -35.1610 O   0  0  0  0  0  0  0  0  0  0  0  0
   12.3990  -33.3690  -30.8980 C   0  0  0  0  0  0  0  0  0  0  0  0
    7.9060  -32.1880  -32.0150 C   0  0  0  0  0  0  0  0  0  0  0  0
    2.4650  -35.3240  -37.1720 C   0  0  0  0  0  0  0  0  0  0  0  0
   13.2590  -33.3420  -28.5480 C   0  0  0  0  0  0  0  0  0  0  0  0
    2.2530  -35.0540  -38.4000 O   0  0  0  0  0  0  0  0  0  0  0  0
    4.9310  -34.6870  -37.1490 C   0  0  0  0  0  0  0  0  0  0  0  0
    8.7550  -33.3130  -32.2110 C   0  0  0  0  0  0  0  0  0  0  0  0
    9.8880  -37.5140  -34.0700 C   0  0  0  0  0  0  0  0  0  0  0  0
    9.2670  -36.9090  -35.2650 C   0  0  0  0  0  0  0  0  0  0  0  0
   12.9400  -32.6110  -26.5300 N   0  0  0  0  0  0  0  0  0  0  0  0
   14.0040  -34.4440  -28.5740 O   0  0  0  0  0  0  0  0  0  0  0  0
    4.7850  -35.2370  -35.7060 C   0  0  1  0  0  0  0  0  0  0  0  0
    1.8430  -36.0140  -36.4320 O   0  0  0  0  0  0  0  0  0  0  0  0
   10.8450  -32.9590  -29.0170 C   0  0  0  0  0  0  0  0  0  0  0  0
    9.9830  -33.3110  -31.2580 C   0  0  0  0  0  0  0  0  0  0  0  0
    5.5960  -34.8320  -34.8440 N   0  0  0  0  0  0  0  0  0  0  0  0
    9.1920  -35.5530  -35.2460 C   0  0  2  0  0  0  0  0  0  0  0  0
    9.7630  -32.8610  -29.9680 C   0  0  0  0  0  0  0  0  0  0  0  0
   10.9140  -33.9240  -34.0480 O   0  0  0  0  0  0  0  0  0  0  0  0
   10.2100  -34.9650  -34.2860 N   0  0  0  0  0  0  0  0  0  0  0  0
    6.7890  -32.0550  -32.7690 N   0  0  0  0  0  0  0  0  0  0  0  0
  1  4  1  1
  1  8  1  0
  2 27  2  0
  2 13  1  0
  3  6  2  0
  5 33  1  0
  6  2  1  0
  7 26  1  0
  7 16  1  0
  8  5  1  6
  8 19  1  0
  9 22  1  0
 10 15  1  6
 10 24  1  0
 11  5  2  0
 12  4  2  0
 13  7  2  0
 15 25  1  0
 16  9  1  0
 17 15  2  0
 18 10  1  0
 19 14  2  0
 19 27  1  0
 21 20  1  0
 23 16  2  0
 24 18  1  0
 24 28  1  1
 27 30  1  0
 28  4  1  0
 28 11  1  0
 29 21  1  1
 29  1  1  0
 29 32  1  0
 30 26  2  0
 31  6  1  0
 32 31  1  0
 33 14  1  0
M  END
$$$$

     RDKit          3D

 40 47  0  0  0  0  0  0  0  0999 V2000
   10.3520  -36.0270  -30.2740 O   0  0  0  0  0  0  0  0  0  0  0  0
    9.6770  -37.0690  -34.4990 C   0  0  0  0  0  0  0  0  0  0  0  0
   11.9080  -31.2250  -29.8210 O   0  0  0  0  0  0  0  0  0  0  0  0
    4.7510  -31.6360  -31.1740 N   0  0  0  0  0  0  0  0  0  0  0  0
    9.3440  -34.7060  -32.8810 O   0  0  0  0  0  0  0  0  0  0  0  0
   10.8220  -34.7950  -35.0250 C   0  0  0  0  0  0  0  0  0  0  0  0
   13.2120  -34.5880  -34.0020 C   0  0  0  0  0  0  0  0  0  0  0  0
   10.6160  -36.8390  -33.9470 C   0  0  1  0  0  0  0  0  0  0  0  0
   11.1230  -34.6550  -28.7190 O   0  0  0  0  0  0  0  0  0  0  0  0
    8.7500  -32.6230  -32.9410 C   0  0  0  0  0  0  0  0  0  0  0  0
    9.4060  -33.4080  -32.3170 C   0  0  2  0  0  0  0  0  0  0  0  0
   12.0810  -33.5900  -30.9540 C   0  0  1  0  0  0  0  0  0  0  0  0
    6.3000  -35.3760  -35.8300 C   0  0  0  0  0  0  0  0  0  0  0  0
    4.7480  -32.6100  -32.0760 N   0  0  0  0  0  0  0  0  0  0  0  0
   11.0630  -35.0610  -30.0730 C   0  0  0  0  0  0  0  0  0  0  0  0
    9.4220  -35.2000  -34.3620 C   0  0  1  0  0  0  0  0  0  0  0  0
    5.6700  -31.0520  -31.7970 C   0  0  0  0  0  0  0  0  0  0  0  0
    3.6300  -34.8640  -36.7970 C   0  0  0  0  0  0  0  0  0  0  0  0
    5.5870  -33.4140  -32.0670 C   0  0  0  0  0  0  0  0  0  0  0  0
    6.6890  -32.2460  -31.7850 C   0  0  1  0  0  0  0  0  0  0  0  0
    4.7200  -34.1220  -34.6660 C   0  0  1  0  0  0  0  0  0  0  0  0
   11.0670  -33.6540  -33.1860 C   0  0  1  0  0  0  0  0  0  0  0  0
    8.5790  -36.5940  -34.1630 C   0  0  0  0  0  0  0  0  0  0  0  0
   13.0230  -32.6480  -32.8960 C   0  0  0  0  0  0  0  0  0  0  0  0
   10.6980  -31.9750  -29.5740 C   0  0  0  0  0  0  0  0  0  0  0  0
   11.9890  -32.6410  -29.6700 C   0  0  2  0  0  0  0  0  0  0  0  0
   11.6920  -34.6850  -33.6850 C   0  0  1  0  0  0  0  0  0  0  0  0
    4.0620  -32.8060  -33.1830 C   0  0  0  0  0  0  0  0  0  0  0  0
   11.3610  -37.1170  -34.4040 O   0  0  0  0  0  0  0  0  0  0  0  0
   11.8380  -34.8420  -31.2100 C   0  0  1  0  0  0  0  0  0  0  0  0
   11.2250  -34.7940  -32.5500 C   0  0  1  0  0  0  0  0  0  0  0  0
    7.6120  -32.1250  -32.9800 C   0  0  0  0  0  0  0  0  0  0  0  0
   12.0140  -32.7120  -32.3470 N   0  0  0  0  0  0  0  0  0  0  0  0
    9.8300  -35.8480  -32.8360 C   0  0  2  0  0  0  0  0  0  0  0  0
    4.9290  -35.2740  -36.5950 N   0  0  0  0  0  0  0  0  0  0  0  0
    3.8660  -33.9480  -33.6910 C   0  0  0  0  0  0  0  0  0  0  0  0
   10.4040  -37.2330  -32.6140 O   0  0  0  0  0  0  0  0  0  0  0  0
    7.5350  -32.2630  -30.5440 C   0  0  0  0  0  0  0  0  0  0  0  0
    5.5030  -34.6550  -35.4490 C   0  0  0  0  0  0  0  0  0  0  0  0
    3.4730  -34.1790  -35.6750 N   0  0  0  0  0  0  0  0  0  0  0  0
  1 15  2  0
  2 23  1  0
  2  8  1  0
  3 26  1  0
  3 25  1  0
 34  5  1  1
  5 11  1  0
  6 27  1  0
  8 29  1  6
  8 34  1  0
  8 37  1  0
 11 10  1  6
 12 33  1  6
 12 26  1  0
 13 39  2  0
 14 19  1  0
 14  4  1  0
 15  9  1  0
 16  6  1  6
 16 23  1  0
 16 34  1  0
 17 20  1  0
 17  4  1  0
 18 35  1  0
 18 40  1  0
 19 20  1  0
 20 38  1  1
 21 36  1  1
 22 31  1  0
 22 33  1  1
 22 11  1  0
 24 33  1  0
 26 25  1  6
 27  7  1  6
 27 22  1  0
 27 31  1  0
 28 14  1  0
 30 12  1  0
 30 15  1  1
 31 30  1  1
 32 10  1  0
 32 20  1  0
 34 37  1  0
 35 39  1  0
 36 28  1  0
 39 21  1  0
 40 21  1  0
M  END
$$$$

     RDKit          3D

 24 27  0  0  0  0  0  0  0  0999 V2000
   11.8850  -33.9070  -31.5980 C   0  0  2  0  0  0  0  0  0  0  0  0
    3.9940  -33.8180  -34.8810 C   0  0  1  0  0  0  0  0  0  0  0  0
   10.4520  -35.3510  -33.1250 C   0  0  2  0  0  0  0  0  0  0  0  0
    9.3760  -34.9440  -33.3680 C   0  0  2  0  0  0  0  0  0  0  0  0
    7.0190  -34.5850  -33.9880 C   0  0  0  0  0  0  0  0  0  0  0  0
    7.8940  -35.2700  -33.8990 C   0  0  0  0  0  0  0  0  0  0  0  0
    6.1770  -33.3400  -33.5360 C   0  0  1  0  0  0  0  0  0  0  0  0
    4.5950  -33.0580  -33.8350 C   0  0  1  0  0  0  0  0  0  0  0  0
   10.0080  -32.7670  -29.6660 C   0  0  0  0  0  0  0  0  0  0  0  0
   11.4250  -34.5590  -33.0110 C   0  0  0  0  0  0  0  0  0  0  0  0
   10.4540  -33.6640  -31.3130 C   0  0  2  0  0  0  0  0  0  0  0  0
   10.7670  -36.2930  -33.2480 F   0  0  0  0  0  0  0  0  0  0  0  0
    9.5320  -33.2860  -31.9460 C   0  0  0  0  0  0  0  0  0  0  0  0
    8.7790  -33.7360  -32.7360 C   0  0  0  0  0  0  0  0  0  0  0  0
    7.2320  -32.0590  -32.1520 C   0  0  0  0  0  0  0  0  0  0  0  0
    6.2340  -32.3870  -32.7570 C   0  0  0  0  0  0  0  0  0  0  0  0
   10.7980  -32.9800  -30.2140 C   0  0  0  0  0  0  0  0  0  0  0  0
    8.0930  -33.3080  -32.6760 C   0  0  0  0  0  0  0  0  0  0  0  0
    8.8430  -35.6520  -33.9060 C   0  0  0  0  0  0  0  0  0  0  0  0
    2.9130  -33.9790  -36.0680 C   0  0  0  0  0  0  0  0  0  0  0  0
   12.0330  -32.8640  -29.4260 O   0  0  0  0  0  0  0  0  0  0  0  0
    5.2250  -33.9190  -34.6820 C   0  0  2  0  0  0  0  0  0  0  0  0
    5.6300  -35.1120  -35.2820 C   0  0  0  0  0  0  0  0  0  0  0  0
   12.9760  -33.0230  -32.2230 C   0  0  0  0  0  0  0  0  0  0  0  0
  1 24  1  6
  1 11  1  0
  2 20  1  6
  2 22  1  0
  8  2  1  1
  3 12  1  6
  3 10  1  0
  4 19  1  1
  4  3  1  0
  4 14  1  0
  5  6  1  0
  7  5  1  1
  7 16  1  0
  8  7  1  0
 10  1  1  0
 11 17  1  1
 13 11  1  0
 14 18  2  3
 14 13  1  0
 16 15  1  0
 17  9  2  0
 17 21  1  0
 18 15  1  0
 19  6  1  0
 22  8  1  0
 22  7  1  0
 22 23  1  6
M  END
$$$$

     RDKit          3D

 24 26  0  0  0  0  0  0  0  0999 V2000
    7.7010  -33.7560  -32.5830 C   0  0  1  0  0  0  0  0  0  0  0  0
    9.2340  -36.6490  -33.4670 O   0  0  0  0  0  0  0  0  0  0  0  0
    7.9070  -35.3200  -34.4980 C   0  0  1  0  0  0  0  0  0  0  0  0
    6.1040  -32.5450  -33.6080 O   0  0  0  0  0  0  0  0  0  0  0  0
    4.1660  -34.3380  -37.4570 C   0  0  2  0  0  0  0  0  0  0  0  0
    4.0420  -32.9880  -33.0140 C   0  0  0  0  0  0  0  0  0  0  0  0
    7.5170  -32.4940  -31.7990 C   0  0  0  0  0  0  0  0  0  0  0  0
    5.6810  -35.4510  -35.9780 N   0  0  0  0  0  0  0  0  0  0  0  0
    6.9520  -35.0050  -35.7020 C   0  0  1  0  0  0  0  0  0  0  0  0
    8.1140  -35.5390  -35.2280 C   0  0  0  0  0  0  0  0  0  0  0  0
    9.8910  -33.6760  -32.0550 C   0  0  0  0  0  0  0  0  0  0  0  0
    3.9200  -34.6100  -34.8620 O   0  0  0  0  0  0  0  0  0  0  0  0
    6.3520  -33.7390  -33.9640 C   0  0  0  0  0  0  0  0  0  0  0  0
    7.1840  -34.5580  -33.5970 C   0  0  1  0  0  0  0  0  0  0  0  0
    5.3940  -32.8760  -33.1130 C   0  0  0  0  0  0  0  0  0  0  0  0
    4.7650  -34.1560  -38.7580 O   0  0  0  0  0  0  0  0  0  0  0  0
    8.8040  -35.7230  -34.0370 C   0  0  0  0  0  0  0  0  0  0  0  0
    5.3110  -34.2580  -35.2820 C   0  0  2  0  0  0  0  0  0  0  0  0
    4.8330  -33.4430  -36.4540 C   0  0  0  0  0  0  0  0  0  0  0  0
    7.4860  -34.4400  -34.5110 C   0  0  1  0  0  0  0  0  0  0  0  0
    4.5640  -35.7100  -36.9390 C   0  0  0  0  0  0  0  0  0  0  0  0
    9.5490  -34.6850  -33.4590 O   0  0  0  0  0  0  0  0  0  0  0  0
    2.6100  -34.1570  -37.4340 C   0  0  0  0  0  0  0  0  0  0  0  0
    9.1700  -34.2780  -32.5590 C   0  0  0  0  0  0  0  0  0  0  0  0
  1 24  1  0
  1  7  1  6
  3 17  1  1
  4 15  1  0
  5 23  1  6
  5 21  1  0
  5 19  1  0
  8 21  1  0
  8  9  1  0
  8 18  1  0
  9 18  1  0
  9 10  1  1
  9 20  1  0
 10  3  1  0
 13  4  1  0
 14 13  1  6
 14  1  1  0
 15  6  2  0
 16  5  1  0
 17  2  2  0
 18 12  1  1
 19 18  1  0
 20  3  1  1
 20 14  1  0
 22 24  2  0
 24 11  1  0
M  END
$$$$

     RDKit          3D

 19 21  0  0  0  0  0  0  0  0999 V2000
    5.7550  -32.7940  -33.3380 N   0  0  0  0  0  0  0  0  0  0  0  0
   11.1930  -32.9150  -29.5700 C   0  0  0  0  0  0  0  0  0  0  0  0
    6.8690  -33.5680  -33.5120 C   0  0  2  0  0  0  0  0  0  0  0  0
    4.3600  -34.5880  -37.4540 C   0  0  0  0  0  0  0  0  0  0  0  0
    7.9630  -33.4330  -32.7500 C   0  0  0  0  0  0  0  0  0  0  0  0
   10.0380  -33.9150  -32.1050 C   0  0  0  0  0  0  0  0  0  0  0  0
    4.5130  -35.9500  -36.9750 C   0  0  0  0  0  0  0  0  0  0  0  0
    4.6140  -33.7070  -36.0730 C   0  0  0  0  0  0  0  0  0  0  0  0
    5.5680  -34.7090  -35.4170 C   0  0  2  0  0  0  0  0  0  0  0  0
    8.9780  -35.1200  -34.1150 C   0  0  0  0  0  0  0  0  0  0  0  0
    9.0310  -34.1480  -33.0460 C   0  0  0  0  0  0  0  0  0  0  0  0
    7.7770  -35.1770  -34.7940 N   0  0  0  0  0  0  0  0  0  0  0  0
    6.8100  -34.4110  -34.5670 N   0  0  0  0  0  0  0  0  0  0  0  0
    8.2340  -32.6310  -31.6910 N   0  0  0  0  0  0  0  0  0  0  0  0
    5.8600  -35.7850  -36.3620 C   0  0  0  0  0  0  0  0  0  0  0  0
    7.2400  -31.5700  -31.0970 C   0  0  0  0  0  0  0  0  0  0  0  0
    9.4370  -32.9210  -31.2660 C   0  0  0  0  0  0  0  0  0  0  0  0
    9.9600  -32.3080  -30.1690 N   0  0  0  0  0  0  0  0  0  0  0  0
   10.1350  -35.9460  -34.4070 C   0  0  0  0  0  0  0  0  0  0  0  0
  3  1  1  6
  3  5  1  0
  4  7  1  0
  4  8  1  0
  5 14  1  0
  6 17  2  0
  7 15  1  0
  8  9  1  0
  9 13  1  6
 10 11  1  0
 11  5  2  0
 11  6  1  0
 12 13  1  0
 12 10  2  0
 13  3  1  0
 14 17  1  0
 14 16  1  0
 15  9  1  0
 17 18  1  0
 18  2  1  0
 19 10  1  0
M  END
$$$$

     RDKit          3D

 37 41  0  0  0  0  0  0  0  0999 V2000
    5.9780  -31.0810  -31.7080 C   0  0  0  0  0  0  0  0  0  0  0  0
   13.1870  -34.2610  -29.7120 F   0  0  0  0  0  0  0  0  0  0  0  0
    2.8930  -34.0310  -37.3630 N   0  0  0  0  0  0  0  0  0  0  0  0
    5.6710  -34.4410  -35.4080 C   0  0  0  0  0  0  0  0  0  0  0  0
    8.6290  -36.4220  -33.6380 O   0  0  0  0  0  0  0  0  0  0  0  0
   12.4350  -34.4660  -33.7180 C   0  0  0  0  0  0  0  0  0  0  0  0
   10.9120  -33.7810  -31.0730 C   0  0  2  0  0  0  0  0  0  0  0  0
    6.8040  -34.9580  -35.0340 C   0  0  0  0  0  0  0  0  0  0  0  0
    7.2870  -34.4330  -33.7020 C   0  0  2  0  0  0  0  0  0  0  0  0
   11.5140  -34.2920  -32.4230 C   0  0  1  0  0  0  0  0  0  0  0  0
    4.8130  -33.6600  -34.5920 C   0  0  0  0  0  0  0  0  0  0  0  0
    9.8220  -32.6580  -31.0490 C   0  0  0  0  0  0  0  0  0  0  0  0
   12.5760  -34.5960  -32.2590 O   0  0  0  0  0  0  0  0  0  0  0  0
    5.2370  -33.1520  -33.4490 C   0  0  0  0  0  0  0  0  0  0  0  0
    8.3250  -35.1620  -33.0900 N   0  0  0  0  0  0  0  0  0  0  0  0
    9.8290  -36.8070  -32.9280 C   0  0  0  0  0  0  0  0  0  0  0  0
    6.6310  -33.3490  -33.1950 C   0  0  1  0  0  0  0  0  0  0  0  0
   10.6020  -34.6230  -32.9360 N   0  0  0  0  0  0  0  0  0  0  0  0
   10.1390  -37.9270  -33.5660 C   0  0  0  0  0  0  0  0  0  0  0  0
    1.6390  -34.2250  -39.4170 C   0  0  0  0  0  0  0  0  0  0  0  0
    3.8020  -34.0800  -36.4740 C   0  0  0  0  0  0  0  0  0  0  0  0
    8.9600  -33.1100  -32.1210 C   0  0  2  0  0  0  0  0  0  0  0  0
    4.0940  -33.6470  -39.3670 O   0  0  0  0  0  0  0  0  0  0  0  0
   10.7350  -35.3930  -33.9460 C   0  0  0  0  0  0  0  0  0  0  0  0
    5.0300  -34.5210  -36.6410 N   0  0  0  0  0  0  0  0  0  0  0  0
    3.6750  -33.5510  -35.3350 C   0  0  0  0  0  0  0  0  0  0  0  0
   12.0980  -33.3680  -30.1160 C   0  0  1  0  0  0  0  0  0  0  0  0
    7.4730  -32.5620  -32.3380 N   0  0  0  0  0  0  0  0  0  0  0  0
    9.1060  -34.0450  -32.9500 C   0  0  2  0  0  0  0  0  0  0  0  0
    9.7750  -38.6500  -33.4960 C   0  0  0  0  0  0  0  0  0  0  0  0
    1.9700  -33.5790  -40.9030 C   0  0  0  0  0  0  0  0  0  0  0  0
   11.0480  -38.2290  -34.0200 C   0  0  0  0  0  0  0  0  0  0  0  0
   11.5130  -32.9600  -28.9810 F   0  0  0  0  0  0  0  0  0  0  0  0
   12.6860  -32.3790  -30.7480 F   0  0  0  0  0  0  0  0  0  0  0  0
   11.9890  -34.9510  -34.3990 C   0  0  0  0  0  0  0  0  0  0  0  0
    3.0400  -33.7590  -38.8180 C   0  0  0  0  0  0  0  0  0  0  0  0
    7.2180  -31.6810  -31.4260 C   0  0  0  0  0  0  0  0  0  0  0  0
  1 37  1  0
  3 21  1  0
  4  8  1  0
  4 11  2  0
  5 15  1  0
  5 16  1  0
  6 13  1  0
  7 12  1  6
  7 27  1  0
  9  8  1  1
  9 17  1  0
  9 15  1  0
 10 13  1  1
 10  7  1  0
 11 14  1  0
 17 14  1  1
 17 28  1  0
 18 24  1  0
 18 10  1  0
 19 30  2  0
 19 16  1  0
 20 36  1  0
 21 26  1  0
 22 12  1  1
 23 36  2  0
 25 21  2  0
 25  4  1  0
 26 11  1  0
 27  2  1  1
 27 33  1  0
 28 22  1  0
 28 37  1  0
 29 15  1  1
 29 18  1  0
 29 22  1  0
 31 20  1  0
 32 19  1  0
 34 27  1  0
 35 24  1  0
 35  6  1  0
 36  3  1  0
M  END
$$$$

     RDKit          3D

 35 42  0  0  0  0  0  0  0  0999 V2000
    9.9050  -33.3970  -32.2330 C   0  0  1  0  0  0  0  0  0  0  0  0
    9.0270  -35.6020  -33.6120 C   0  0  0  0  0  0  0  0  0  0  0  0
    6.7690  -35.1360  -35.1750 C   0  0  0  0  0  0  0  0  0  0  0  0
   10.9440  -33.6750  -30.2750 C   0  0  2  0  0  0  0  0  0  0  0  0
   10.9140  -32.2680  -28.2210 C   0  0  0  0  0  0  0  0  0  0  0  0
   11.7260  -32.2110  -28.0580 C   0  0  0  0  0  0  0  0  0  0  0  0
   10.6490  -35.9570  -31.7250 C   0  0  0  0  0  0  0  0  0  0  0  0
    6.3300  -34.6260  -37.4010 C   0  0  0  0  0  0  0  0  0  0  0  0
   10.4480  -34.7090  -31.2010 C   0  0  2  0  0  0  0  0  0  0  0  0
    2.7930  -33.9160  -40.1730 C   0  0  0  0  0  0  0  0  0  0  0  0
   11.4460  -35.3200  -33.9110 C   0  0  0  0  0  0  0  0  0  0  0  0
   13.1810  -33.8120  -30.9640 O   0  0  0  0  0  0  0  0  0  0  0  0
    6.9140  -32.0400  -32.5250 C   0  0  0  0  0  0  0  0  0  0  0  0
   12.3130  -33.5940  -29.9820 C   0  0  1  0  0  0  0  0  0  0  0  0
    8.8570  -33.5740  -32.5040 C   0  0  1  0  0  0  0  0  0  0  0  0
    3.7370  -34.5170  -36.9020 N   0  0  0  0  0  0  0  0  0  0  0  0
    8.0640  -32.7410  -32.3570 C   0  0  0  0  0  0  0  0  0  0  0  0
   10.3460  -36.0590  -33.2650 C   0  0  2  0  0  0  0  0  0  0  0  0
    8.3210  -34.4180  -33.4200 C   0  0  0  0  0  0  0  0  0  0  0  0
    9.2060  -37.8180  -34.3540 C   0  0  0  0  0  0  0  0  0  0  0  0
    5.3910  -34.3260  -38.4450 C   0  0  0  0  0  0  0  0  0  0  0  0
    8.5310  -36.4890  -34.4300 C   0  0  0  0  0  0  0  0  0  0  0  0
   10.7270  -32.8170  -29.4600 C   0  0  0  0  0  0  0  0  0  0  0  0
    7.4970  -31.5220  -30.4090 C   0  0  0  0  0  0  0  0  0  0  0  0
   12.8190  -32.9820  -28.8520 C   0  0  0  0  0  0  0  0  0  0  0  0
    2.9510  -34.4790  -38.9410 O   0  0  0  0  0  0  0  0  0  0  0  0
    5.8660  -34.8260  -36.0940 C   0  0  0  0  0  0  0  0  0  0  0  0
    6.6630  -31.3080  -31.4390 C   0  0  0  0  0  0  0  0  0  0  0  0
    4.0160  -34.3780  -38.1260 C   0  0  0  0  0  0  0  0  0  0  0  0
    8.2740  -32.3470  -30.6310 C   0  0  0  0  0  0  0  0  0  0  0  0
   10.4820  -37.5100  -33.7420 C   0  0  0  0  0  0  0  0  0  0  0  0
    8.9030  -32.8110  -31.7030 C   0  0  2  0  0  0  0  0  0  0  0  0
    4.5270  -34.7960  -35.8850 C   0  0  0  0  0  0  0  0  0  0  0  0
    7.0900  -34.3260  -34.1280 N   0  0  0  0  0  0  0  0  0  0  0  0
    7.5300  -36.2300  -35.3460 C   0  0  0  0  0  0  0  0  0  0  0  0
  1 32  1  0
  1  9  1  1
  2 19  2  0
  2 18  1  0
  3 34  2  0
  4 14  1  0
  4 23  1  1
  5  6  1  0
  9  7  1  6
  8 27  2  0
  9  4  1  0
 10 26  1  0
 18 11  1  6
 14 12  1  6
 13 17  1  0
 13 28  1  0
 14 25  1  0
 15 17  1  6
 15  1  1  0
 15 32  1  0
 16 33  2  0
 17 32  1  0
 18  7  1  0
 19 15  1  0
 20 31  1  0
 21 29  2  0
 21  8  1  0
 22 20  1  0
 22  2  1  0
 23  5  1  0
 25  6  1  0
 26 29  1  0
 27 33  1  0
 27  3  1  0
 28 24  1  0
 29 16  1  0
 30 24  1  0
 31 18  1  0
 32 30  1  1
 34 19  1  0
 35  3  1  0
 35 22  2  0
M  END
$$$$

     RDKit          3D

 27 30  0  0  0  0  0  0  0  0999 V2000
    9.7690  -32.1130  -29.6900 C   0  0  0  0  0  0  0  0  0  0  0  0
    3.7730  -34.7160  -35.3530 C   0  0  0  0  0  0  0  0  0  0  0  0
    5.9620  -33.6960  -33.8040 C   0  0  0  0  0  0  0  0  0  0  0  0
    7.0330  -32.0730  -32.1990 C   0  0  0  0  0  0  0  0  0  0  0  0
   13.1770  -33.8960  -29.7540 F   0  0  0  0  0  0  0  0  0  0  0  0
    9.3880  -35.8440  -34.2270 C   0  0  1  0  0  0  0  0  0  0  0  0
    8.2630  -34.8790  -34.2200 N   0  0  0  0  0  0  0  0  0  0  0  0
    6.1290  -34.6650  -34.8330 C   0  0  0  0  0  0  0  0  0  0  0  0
    3.6360  -33.6260  -34.4690 C   0  0  0  0  0  0  0  0  0  0  0  0
    5.0000  -35.3010  -35.4640 C   0  0  0  0  0  0  0  0  0  0  0  0
   10.0370  -33.4680  -31.6730 C   0  0  0  0  0  0  0  0  0  0  0  0
    9.4320  -33.9500  -32.7360 C   0  0  0  0  0  0  0  0  0  0  0  0
    5.1640  -36.6690  -36.1620 C   0  0  0  0  0  0  0  0  0  0  0  0
   10.7640  -31.9060  -27.3800 C   0  0  0  0  0  0  0  0  0  0  0  0
   11.9030  -33.3390  -30.3230 C   0  0  0  0  0  0  0  0  0  0  0  0
   11.2520  -32.2690  -29.6140 C   0  0  2  0  0  0  0  0  0  0  0  0
   11.3450  -33.9180  -31.2970 C   0  0  0  0  0  0  0  0  0  0  0  0
    4.6310  -33.2030  -33.6880 C   0  0  0  0  0  0  0  0  0  0  0  0
   11.4550  -32.4350  -28.1740 O   0  0  0  0  0  0  0  0  0  0  0  0
    8.3570  -31.5200  -31.6380 C   0  0  0  0  0  0  0  0  0  0  0  0
    9.3720  -37.3180  -33.8510 C   0  0  0  0  0  0  0  0  0  0  0  0
    7.1070  -33.2230  -33.1010 C   0  0  0  0  0  0  0  0  0  0  0  0
    7.3720  -35.0450  -35.1570 C   0  0  0  0  0  0  0  0  0  0  0  0
   10.4400  -35.6620  -35.4420 C   0  0  0  0  0  0  0  0  0  0  0  0
    8.2370  -34.0030  -33.2950 C   0  0  0  0  0  0  0  0  0  0  0  0
    7.6540  -35.5300  -36.2900 O   0  0  0  0  0  0  0  0  0  0  0  0
    9.2810  -32.3690  -31.0510 C   0  0  0  0  0  0  0  0  0  0  0  0
  1 16  1  0
  2  9  2  0
  3 18  2  0
  3 22  1  0
  4 20  1  0
  6  7  1  0
  6 21  1  6
  7 25  1  0
  8  3  1  0
  9 18  1  0
 10  2  1  0
 10  8  2  0
 11 17  1  0
 11 27  2  0
 12 11  1  0
 13 10  1  0
 15  5  1  0
 15 16  1  0
 16 19  1  1
 17 15  2  0
 19 14  1  0
 20 27  1  0
 22  4  2  0
 23  8  1  0
 23  7  1  0
 24  6  1  0
 25 22  1  0
 25 12  2  0
 26 23  2  0
 27  1  1  0
M  END
$$$$

     RDKit          3D

 40 45  0  0  0  0  0  0  0  0999 V2000
    4.8740  -33.0920  -33.1470 C   0  0  0  0  0  0  0  0  0  0  0  0
    0.9450  -35.3040  -37.1660 C   0  0  0  0  0  0  0  0  0  0  0  0
    3.1740  -35.6070  -37.0030 C   0  0  0  0  0  0  0  0  0  0  0  0
    5.3450  -34.7040  -38.0170 C   0  0  0  0  0  0  0  0  0  0  0  0
    7.0390  -33.8480  -33.2870 C   0  0  0  0  0  0  0  0  0  0  0  0
    5.2300  -34.5290  -36.4230 C   0  0  2  0  0  0  0  0  0  0  0  0
    9.1660  -35.0860  -33.1960 C   0  0  0  0  0  0  0  0  0  0  0  0
   13.3940  -33.3070  -27.6590 O   0  0  0  0  0  0  0  0  0  0  0  0
    2.1830  -34.3300  -38.9650 C   0  0  0  0  0  0  0  0  0  0  0  0
    9.0490  -32.0410  -30.5200 C   0  0  0  0  0  0  0  0  0  0  0  0
    7.9180  -31.6870  -31.1280 O   0  0  0  0  0  0  0  0  0  0  0  0
   11.7520  -33.3820  -29.8860 C   0  0  0  0  0  0  0  0  0  0  0  0
    0.9730  -34.2880  -39.6050 C   0  0  0  0  0  0  0  0  0  0  0  0
    6.2540  -35.5140  -37.0760 C   0  0  0  0  0  0  0  0  0  0  0  0
    9.5710  -37.2380  -34.1810 C   0  0  0  0  0  0  0  0  0  0  0  0
    3.8210  -34.6250  -36.1310 N   0  0  0  0  0  0  0  0  0  0  0  0
    2.2620  -33.3650  -34.9300 O   0  0  0  0  0  0  0  0  0  0  0  0
    5.5810  -34.2000  -35.1000 C   0  0  0  0  0  0  0  0  0  0  0  0
    2.1610  -34.9530  -37.7630 C   0  0  0  0  0  0  0  0  0  0  0  0
   12.7290  -35.1920  -34.3160 C   0  0  0  0  0  0  0  0  0  0  0  0
   11.3960  -35.6780  -34.0060 C   0  0  0  0  0  0  0  0  0  0  0  0
    3.3300  -33.8600  -35.1430 C   0  0  0  0  0  0  0  0  0  0  0  0
    6.0950  -33.1560  -32.5580 C   0  0  0  0  0  0  0  0  0  0  0  0
   11.4340  -32.6600  -28.7410 C   0  0  0  0  0  0  0  0  0  0  0  0
    8.7350  -36.3190  -33.6150 C   0  0  0  0  0  0  0  0  0  0  0  0
   11.2150  -33.5580  -32.5620 C   0  0  0  0  0  0  0  0  0  0  0  0
    8.3520  -34.0280  -32.6150 N   0  0  0  0  0  0  0  0  0  0  0  0
   10.3980  -31.8620  -28.4580 C   0  0  0  0  0  0  0  0  0  0  0  0
    4.5320  -33.6380  -34.3760 C   0  0  0  0  0  0  0  0  0  0  0  0
    6.8220  -34.2860  -34.5380 C   0  0  0  0  0  0  0  0  0  0  0  0
    9.7530  -32.8770  -31.0440 N   0  0  0  0  0  0  0  0  0  0  0  0
   10.5670  -34.7290  -33.2430 C   0  0  0  0  0  0  0  0  0  0  0  0
   10.9910  -33.3780  -30.9820 C   0  0  2  0  0  0  0  0  0  0  0  0
   10.9810  -36.9430  -34.2720 C   0  0  0  0  0  0  0  0  0  0  0  0
    9.3270  -31.5440  -29.2940 C   0  0  0  0  0  0  0  0  0  0  0  0
   12.4630  -32.6810  -27.6700 C   0  0  0  0  0  0  0  0  0  0  0  0
   13.8470  -35.1020  -34.4390 N   0  0  0  0  0  0  0  0  0  0  0  0
   12.2260  -32.0620  -26.6040 O   0  0  0  0  0  0  0  0  0  0  0  0
   -0.1930  -35.0920  -37.8560 C   0  0  0  0  0  0  0  0  0  0  0  0
   -0.1190  -34.6610  -39.0860 N   0  0  0  0  0  0  0  0  0  0  0  0
  1 23  2  0
  3 16  1  0
  4 14  1  0
  6  4  1  6
  5 27  1  0
  5 23  1  0
  6 16  1  0
  6 18  1  0
  7 27  1  0
  9 19  1  0
 10 35  1  0
 11 10  2  0
 12 24  2  0
 13 40  1  0
 13  9  2  0
 14  6  1  0
 15 25  2  0
 16 22  1  0
 18 30  1  0
 18 29  2  0
 19  2  2  0
 19  3  1  0
 20 21  1  0
 21 32  1  0
 22 17  2  0
 22 29  1  0
 24 28  1  0
 24 36  1  0
 25  7  1  0
 29  1  1  0
 30  5  2  0
 31 33  1  0
 31 10  1  0
 32  7  2  0
 32 26  1  0
 33 26  1  6
 33 12  1  0
 34 15  1  0
 34 21  2  0
 35 28  2  0
 36  8  2  0
 36 38  1  0
 37 20  3  0
 39  2  1  0
 40 39  2  0
M  END
$$$$

     RDKit          3D

 36 40  0  0  0  0  0  0  0  0999 V2000
   10.8400  -31.8290  -28.2230 N   0  0  0  0  0  0  0  0  0  0  0  0
    7.5990  -32.6850  -32.7250 F   0  0  0  0  0  0  0  0  0  0  0  0
    3.3090  -34.1750  -34.6520 C   0  0  0  0  0  0  0  0  0  0  0  0
    2.8580  -31.9630  -29.8990 C   0  0  0  0  0  0  0  0  0  0  0  0
   12.9270  -33.0310  -31.4620 C   0  0  0  0  0  0  0  0  0  0  0  0
    6.8160  -31.0550  -31.4920 O   0  0  0  0  0  0  0  0  0  0  0  0
   11.5260  -32.9670  -29.7650 N   0  0  0  0  0  0  0  0  0  0  0  0
   12.4470  -32.9760  -28.7780 C   0  0  0  0  0  0  0  0  0  0  0  0
   11.8950  -32.2310  -27.8560 N   0  0  0  0  0  0  0  0  0  0  0  0
    2.4430  -34.7860  -37.6570 C   0  0  0  0  0  0  0  0  0  0  0  0
    9.1440  -35.7370  -34.4760 C   0  0  1  0  0  0  0  0  0  0  0  0
    3.7110  -31.0430  -30.7940 C   0  0  0  0  0  0  0  0  0  0  0  0
    4.2770  -35.9270  -36.2970 C   0  0  0  0  0  0  0  0  0  0  0  0
   12.1730  -33.8240  -33.5940 C   0  0  0  0  0  0  0  0  0  0  0  0
    3.9100  -32.0250  -32.0130 C   0  0  0  0  0  0  0  0  0  0  0  0
    4.3680  -34.7570  -35.3280 C   0  0  0  0  0  0  0  0  0  0  0  0
    4.9380  -32.9960  -33.6490 N   0  0  0  0  0  0  0  0  0  0  0  0
    6.0350  -33.4110  -34.2600 N   0  0  0  0  0  0  0  0  0  0  0  0
    6.8710  -35.2930  -35.4360 C   0  0  0  0  0  0  0  0  0  0  0  0
    2.9520  -36.0760  -36.9600 C   0  0  0  0  0  0  0  0  0  0  0  0
   13.1040  -33.1810  -32.9180 C   0  0  0  0  0  0  0  0  0  0  0  0
    7.6500  -35.8080  -34.2440 C   0  0  0  0  0  0  0  0  0  0  0  0
    6.5990  -31.9890  -32.1670 C   0  0  0  0  0  0  0  0  0  0  0  0
    3.6310  -33.2490  -33.7090 C   0  0  0  0  0  0  0  0  0  0  0  0
    3.4400  -33.3560  -29.5880 C   0  0  0  0  0  0  0  0  0  0  0  0
   10.9700  -34.4060  -32.9470 C   0  0  0  0  0  0  0  0  0  0  0  0
    2.9030  -32.5860  -32.7010 N   0  0  0  0  0  0  0  0  0  0  0  0
    9.5030  -34.8490  -35.6480 C   0  0  0  0  0  0  0  0  0  0  0  0
    5.6970  -34.4460  -34.9680 C   0  0  0  0  0  0  0  0  0  0  0  0
    9.9800  -35.0680  -31.1260 N   0  0  0  0  0  0  0  0  0  0  0  0
    9.8670  -35.1870  -33.3070 N   0  0  0  0  0  0  0  0  0  0  0  0
   10.4270  -32.2990  -29.4580 C   0  0  0  0  0  0  0  0  0  0  0  0
   10.9130  -34.2630  -31.5650 C   0  0  0  0  0  0  0  0  0  0  0  0
    9.4820  -35.7290  -32.1220 N   0  0  0  0  0  0  0  0  0  0  0  0
   11.7420  -33.4410  -30.9780 C   0  0  0  0  0  0  0  0  0  0  0  0
    5.2500  -32.2900  -32.6130 C   0  0  0  0  0  0  0  0  0  0  0  0
  1  9  1  0
  2 23  1  0
  3 24  1  0
  4 25  1  0
  5 35  2  0
  7 32  1  0
  7  8  1  0
  8  9  2  0
 10 20  1  0
 11 28  1  6
 11 22  1  0
 11 31  1  0
 12  4  1  0
 13 16  1  0
 14 26  1  0
 14 21  2  0
 15 12  1  0
 16 29  1  0
 16  3  2  0
 17 36  1  0
 18 17  1  0
 19 29  1  0
 19 22  1  0
 20 13  1  0
 21  5  1  0
 23  6  2  0
 24 17  1  0
 24 27  2  0
 26 33  2  0
 27 15  1  0
 29 18  2  0
 31 26  1  0
 31 34  1  0
 32  1  2  0
 33 30  1  0
 33 35  1  0
 34 30  1  0
 35  7  1  0
 36 23  1  0
 36 15  2  0
M  END
$$$$

     RDKit          3D

 34 38  0  0  0  0  0  0  0  0999 V2000
   12.7810  -33.9170  -30.9360 F   0  0  0  0  0  0  0  0  0  0  0  0
    9.1770  -32.8220  -31.3710 C   0  0  0  0  0  0  0  0  0  0  0  0
    3.9250  -33.8890  -38.7860 C   0  0  0  0  0  0  0  0  0  0  0  0
   10.5940  -35.6410  -33.9380 N   0  0  0  0  0  0  0  0  0  0  0  0
    5.5530  -34.7520  -37.2080 N   0  0  0  0  0  0  0  0  0  0  0  0
   12.2320  -33.0380  -28.6230 O   0  0  0  0  0  0  0  0  0  0  0  0
    6.9030  -31.4110  -30.8600 O   0  0  0  0  0  0  0  0  0  0  0  0
    2.3760  -34.0900  -40.6980 C   0  0  0  0  0  0  0  0  0  0  0  0
    6.6800  -34.5010  -35.1660 C   0  0  0  0  0  0  0  0  0  0  0  0
    8.7480  -34.6040  -33.6640 C   0  0  1  0  0  0  0  0  0  0  0  0
    6.6840  -33.8210  -33.9760 C   0  0  0  0  0  0  0  0  0  0  0  0
   10.1800  -32.1080  -29.2990 C   0  0  0  0  0  0  0  0  0  0  0  0
    9.6770  -35.1990  -33.0720 C   0  0  0  0  0  0  0  0  0  0  0  0
    7.9380  -32.9420  -32.1320 C   0  0  0  0  0  0  0  0  0  0  0  0
    4.5610  -32.8150  -34.5130 C   0  0  0  0  0  0  0  0  0  0  0  0
    5.6620  -32.4440  -32.4330 N   0  0  0  0  0  0  0  0  0  0  0  0
    6.8110  -32.1490  -31.7480 C   0  0  0  0  0  0  0  0  0  0  0  0
    9.1810  -32.0900  -30.1910 C   0  0  0  0  0  0  0  0  0  0  0  0
    8.6250  -35.2000  -34.8120 C   0  0  0  0  0  0  0  0  0  0  0  0
   11.4890  -33.4630  -30.7850 C   0  0  0  0  0  0  0  0  0  0  0  0
    7.7970  -33.8110  -33.1630 C   0  0  0  0  0  0  0  0  0  0  0  0
    5.6060  -33.0860  -33.6410 C   0  0  0  0  0  0  0  0  0  0  0  0
    1.2620  -34.4000  -39.8260 C   0  0  0  0  0  0  0  0  0  0  0  0
    2.9090  -33.8380  -38.1810 C   0  0  0  0  0  0  0  0  0  0  0  0
    5.1300  -33.9200  -38.3030 C   0  0  0  0  0  0  0  0  0  0  0  0
    1.6360  -34.2520  -38.6150 C   0  0  0  0  0  0  0  0  0  0  0  0
    4.6120  -33.3340  -35.7650 C   0  0  0  0  0  0  0  0  0  0  0  0
   10.3830  -33.5260  -31.6410 C   0  0  0  0  0  0  0  0  0  0  0  0
    3.5980  -33.8670  -40.1890 C   0  0  0  0  0  0  0  0  0  0  0  0
    9.9080  -35.7840  -35.0450 C   0  0  0  0  0  0  0  0  0  0  0  0
   10.2880  -31.3770  -28.1780 F   0  0  0  0  0  0  0  0  0  0  0  0
    4.3550  -32.0220  -31.8240 C   0  0  0  0  0  0  0  0  0  0  0  0
    5.5610  -34.2380  -36.0590 C   0  0  0  0  0  0  0  0  0  0  0  0
   11.2150  -32.9010  -29.5800 C   0  0  0  0  0  0  0  0  0  0  0  0
  1 20  1  0
  2 18  1  0
  3 25  1  0
  3 24  2  0
  4 13  1  0
  5 33  1  0
  8 29  2  0
  8 23  1  0
  9 11  2  0
 10 21  1  1
 10 13  1  0
 11 22  1  0
 11 21  1  0
 12 31  1  0
 14 17  1  0
 14  2  1  0
 15 22  2  0
 16 32  1  0
 16 17  1  0
 17  7  2  0
 18 12  2  0
 19 10  1  0
 20 34  2  0
 21 14  2  0
 22 16  1  0
 23 26  2  0
 25  5  1  0
 26 24  1  0
 27 15  1  0
 28  2  2  0
 28 20  1  0
 29  3  1  0
 30 19  1  0
 30  4  1  0
 33 27  2  0
 33  9  1  0
 34 12  1  0
 34  6  1  0
M  END
$$$$

     RDKit          3D

 29 37  0  0  0  0  0  0  0  0999 V2000
   10.7450  -33.1640  -31.4000 N   0  0  0  0  0  0  0  0  0  0  0  0
    7.0620  -31.5140  -30.9350 C   0  0  0  0  0  0  0  0  0  0  0  0
    5.9540  -31.8150  -31.3490 C   0  0  0  0  0  0  0  0  0  0  0  0
    8.4660  -34.6880  -33.7230 C   0  0  1  0  0  0  0  0  0  0  0  0
    6.0760  -32.5830  -32.5320 C   0  0  0  0  0  0  0  0  0  0  0  0
   12.0970  -33.2480  -30.3930 C   0  0  1  0  0  0  0  0  0  0  0  0
    7.5810  -33.8040  -33.5450 C   0  0  0  0  0  0  0  0  0  0  0  0
    4.1340  -35.6110  -35.8420 C   0  0  0  0  0  0  0  0  0  0  0  0
    6.6370  -34.3210  -34.4080 C   0  0  0  0  0  0  0  0  0  0  0  0
    8.8970  -35.7880  -34.4150 C   0  0  1  0  0  0  0  0  0  0  0  0
   11.6690  -35.0200  -33.7590 N   0  0  0  0  0  0  0  0  0  0  0  0
    5.5330  -35.8470  -36.1520 C   0  0  0  0  0  0  0  0  0  0  0  0
   11.0380  -34.1860  -30.4890 C   0  0  0  0  0  0  0  0  0  0  0  0
    4.6070  -33.5370  -35.5760 C   0  0  0  0  0  0  0  0  0  0  0  0
   10.0970  -36.5520  -34.6860 C   0  0  0  0  0  0  0  0  0  0  0  0
   12.7320  -33.4700  -29.1320 C   0  0  0  0  0  0  0  0  0  0  0  0
    3.5490  -34.3690  -35.4430 N   0  0  0  0  0  0  0  0  0  0  0  0
    6.4120  -35.4950  -35.3620 C   0  0  0  0  0  0  0  0  0  0  0  0
   10.6350  -34.2960  -33.4100 C   0  0  1  0  0  0  0  0  0  0  0  0
    5.0470  -32.7610  -33.3560 C   0  0  0  0  0  0  0  0  0  0  0  0
    9.6440  -34.9220  -33.5800 C   0  0  2  0  0  0  0  0  0  0  0  0
    8.1070  -32.7200  -32.4560 C   0  0  0  0  0  0  0  0  0  0  0  0
   11.0660  -36.0030  -34.1390 C   0  0  2  0  0  0  0  0  0  0  0  0
    7.1010  -32.9260  -32.9910 C   0  0  0  0  0  0  0  0  0  0  0  0
   10.7320  -33.0460  -32.6610 C   0  0  0  0  0  0  0  0  0  0  0  0
   11.8590  -32.2510  -29.3060 C   0  0  0  0  0  0  0  0  0  0  0  0
    8.2750  -32.0580  -31.3270 C   0  0  0  0  0  0  0  0  0  0  0  0
    7.5260  -36.0780  -35.0800 C   0  0  0  0  0  0  0  0  0  0  0  0
    5.3140  -33.5790  -34.2830 C   0  0  2  0  0  0  0  0  0  0  0  0
  1 13  1  0
  1  6  1  0
  3  2  2  0
  4 21  1  0
  4  7  1  6
  5  3  1  0
  6 26  1  6
  6 16  1  0
  7 24  1  0
  8 17  1  0
  9 29  1  0
  9  7  2  0
 10 28  1  6
 10  4  1  0
 10 21  1  0
 11 19  1  0
 12  8  1  0
 13  6  1  0
 14 17  1  0
 29 14  1  6
 15 10  1  0
 23 15  1  6
 18 12  1  0
 18 28  1  0
 18  9  1  0
 19 25  1  1
 20  5  1  0
 21 19  1  6
 22 27  2  0
 23 11  1  0
 23 21  1  0
 24  5  2  0
 24 22  1  0
 25  1  1  0
 26 16  1  0
 27  2  1  0
 29 20  1  0
M  END
$$$$

     RDKit          3D

 18 19  0  0  0  0  0  0  0  0999 V2000
    9.6020  -33.0310  -30.9460 C   0  0  0  0  0  0  0  0  0  0  0  0
    6.3420  -35.0850  -35.5600 O   0  0  0  0  0  0  0  0  0  0  0  0
    7.3480  -35.0640  -34.7260 C   0  0  0  0  0  0  0  0  0  0  0  0
    3.8550  -33.1010  -33.2720 C   0  0  0  0  0  0  0  0  0  0  0  0
    8.6480  -33.8630  -33.0790 C   0  0  0  0  0  0  0  0  0  0  0  0
    7.3780  -34.0810  -33.6770 C   0  0  0  0  0  0  0  0  0  0  0  0
    8.7870  -32.8910  -32.1580 O   0  0  0  0  0  0  0  0  0  0  0  0
    4.9770  -33.6170  -33.8750 C   0  0  0  0  0  0  0  0  0  0  0  0
    2.7410  -31.8620  -31.5880 O   0  0  0  0  0  0  0  0  0  0  0  0
    5.1550  -31.9030  -31.7640 C   0  0  0  0  0  0  0  0  0  0  0  0
   10.8670  -34.1740  -33.0790 O   0  0  0  0  0  0  0  0  0  0  0  0
    6.3200  -32.3920  -32.3390 C   0  0  0  0  0  0  0  0  0  0  0  0
    9.6780  -34.5850  -33.4580 C   0  0  0  0  0  0  0  0  0  0  0  0
    3.9070  -32.2620  -32.2150 C   0  0  0  0  0  0  0  0  0  0  0  0
    8.4010  -35.9230  -34.8450 C   0  0  0  0  0  0  0  0  0  0  0  0
    6.1960  -33.3150  -33.3090 C   0  0  0  0  0  0  0  0  0  0  0  0
   10.5470  -36.6980  -34.2250 C   0  0  0  0  0  0  0  0  0  0  0  0
    9.5810  -35.7220  -34.2220 C   0  0  0  0  0  0  0  0  0  0  0  0
  2  3  1  0
  3  6  2  0
  4 14  2  0
  5  7  1  0
  6 16  1  0
  6  5  1  0
  7  1  1  0
  8 16  2  0
  8  4  1  0
 12 10  2  0
 13 11  1  0
 13  5  2  0
 14 10  1  0
 14  9  1  0
 15  3  1  0
 15 18  2  0
 16 12  1  0
 17 18  1  0
 18 13  1  0
M  END
$$$$

     RDKit          3D

 18 20  0  0  0  0  0  0  0  0999 V2000
    7.6160  -33.7680  -32.9930 C   0  0  2  0  0  0  0  0  0  0  0  0
    5.1990  -32.2000  -32.4860 C   0  0  0  0  0  0  0  0  0  0  0  0
    9.7010  -35.4100  -33.6300 C   0  0  0  0  0  0  0  0  0  0  0  0
   10.5030  -33.6530  -31.6580 C   0  0  0  0  0  0  0  0  0  0  0  0
    6.2400  -34.4480  -34.6660 C   0  0  0  0  0  0  0  0  0  0  0  0
    7.6560  -34.2340  -33.7570 C   0  0  0  0  0  0  0  0  0  0  0  0
    6.3240  -35.2880  -35.7450 C   0  0  0  0  0  0  0  0  0  0  0  0
    9.7520  -34.6170  -32.3900 C   0  0  2  0  0  0  0  0  0  0  0  0
    6.8190  -32.9620  -32.9520 C   0  0  0  0  0  0  0  0  0  0  0  0
    9.1630  -34.2000  -32.8570 C   0  0  0  0  0  0  0  0  0  0  0  0
    5.1970  -33.7470  -34.1680 C   0  0  0  0  0  0  0  0  0  0  0  0
    9.2670  -33.7460  -31.6890 C   0  0  0  0  0  0  0  0  0  0  0  0
    7.2650  -34.6590  -34.6430 C   0  0  0  0  0  0  0  0  0  0  0  0
    5.4120  -32.8750  -33.3600 C   0  0  0  0  0  0  0  0  0  0  0  0
    8.0870  -34.4600  -33.9590 C   0  0  0  0  0  0  0  0  0  0  0  0
   10.6770  -34.8760  -32.8420 C   0  0  2  0  0  0  0  0  0  0  0  0
    8.4890  -33.8940  -33.2060 C   0  0  1  0  0  0  0  0  0  0  0  0
   10.9410  -34.2490  -32.6500 C   0  0  0  0  0  0  0  0  0  0  0  0
  1  9  1  6
  5 13  1  0
  5 11  2  0
  6 13  1  0
  6  1  1  0
  7  5  1  0
  8 10  1  6
  8 12  1  0
 11 14  1  0
 12  4  1  0
 14  9  1  0
 14  2  2  0
 15  6  1  0
 15 17  1  0
 16  3  1  6
 16 18  1  0
 16  8  1  0
 17  1  1  0
 17 10  1  1
 18  4  1  0
M  END
$$$$

     RDKit          3D

 27 30  0  0  0  0  0  0  0  0999 V2000
    6.8670  -31.5980  -31.3910 C   0  0  0  0  0  0  0  0  0  0  0  0
    6.8690  -35.1420  -36.4620 O   0  0  0  0  0  0  0  0  0  0  0  0
    4.4770  -33.8700  -38.2540 C   0  0  0  0  0  0  0  0  0  0  0  0
    9.4140  -34.3250  -32.7090 C   0  0  0  0  0  0  0  0  0  0  0  0
    3.6740  -32.6750  -33.2000 C   0  0  0  0  0  0  0  0  0  0  0  0
    8.1330  -33.8620  -33.0140 C   0  0  0  0  0  0  0  0  0  0  0  0
   11.1340  -34.6080  -34.0230 O   0  0  0  0  0  0  0  0  0  0  0  0
    6.1240  -33.2150  -33.2000 C   0  0  0  0  0  0  0  0  0  0  0  0
   10.1880  -37.5140  -34.2480 O   0  0  0  0  0  0  0  0  0  0  0  0
    5.3710  -35.1560  -36.1360 C   0  0  1  0  0  0  0  0  0  0  0  0
   10.1980  -35.3260  -33.5440 C   0  0  0  0  0  0  0  0  0  0  0  0
    7.1850  -34.4000  -34.1810 C   0  0  0  0  0  0  0  0  0  0  0  0
    4.8800  -34.2600  -34.9180 C   0  0  0  0  0  0  0  0  0  0  0  0
    4.5580  -35.0140  -37.6220 C   0  0  1  0  0  0  0  0  0  0  0  0
    5.0910  -36.7310  -35.7180 C   0  0  0  0  0  0  0  0  0  0  0  0
    9.3190  -36.2660  -34.0230 C   0  0  2  0  0  0  0  0  0  0  0  0
    8.3760  -32.2640  -31.3280 C   0  0  0  0  0  0  0  0  0  0  0  0
    3.1500  -34.5910  -37.8650 C   0  0  0  0  0  0  0  0  0  0  0  0
    8.2630  -36.6020  -33.3390 F   0  0  0  0  0  0  0  0  0  0  0  0
    9.0080  -35.8270  -35.3380 C   0  0  0  0  0  0  0  0  0  0  0  0
    8.4290  -33.1980  -32.5090 C   0  0  0  0  0  0  0  0  0  0  0  0
    7.5540  -35.4290  -35.4640 C   0  0  2  0  0  0  0  0  0  0  0  0
   10.2310  -33.7730  -31.6860 O   0  0  0  0  0  0  0  0  0  0  0  0
    6.0910  -34.0050  -34.0740 C   0  0  0  0  0  0  0  0  0  0  0  0
    4.3370  -31.8400  -32.2840 C   0  0  0  0  0  0  0  0  0  0  0  0
    5.9910  -32.3180  -32.1630 C   0  0  0  0  0  0  0  0  0  0  0  0
    3.6230  -33.4610  -34.1020 C   0  0  0  0  0  0  0  0  0  0  0  0
  1 17  1  0
  2 10  1  0
  2 22  1  0
  3 18  1  0
 14  3  1  6
  4 23  1  0
  5 25  1  0
  6  4  2  3
  6 21  1  0
  7 11  2  0
  8 26  2  0
 10 15  1  1
 10 13  1  0
 12 24  1  0
 12  6  1  0
 13 27  1  0
 13 24  1  0
 14 10  1  0
 16  9  1  6
 16 11  1  0
 16 19  1  0
 18 14  1  0
 20 16  1  0
 21 17  1  0
 22 20  1  6
 22 12  1  0
 24  8  2  0
 25 26  1  0
 26  1  1  0
 27  5  2  0
M  END
$$$$

     RDKit          3D

 32 35  0  0  0  0  0  0  0  0999 V2000
    9.3560  -33.9210  -32.5160 C   0  0  0  0  0  0  0  0  0  0  0  0
    8.0100  -34.3710  -33.0710 C   0  0  0  0  0  0  0  0  0  0  0  0
    4.5860  -33.1410  -33.5350 N   0  0  0  0  0  0  0  0  0  0  0  0
    6.9390  -33.0120  -32.9890 C   0  0  1  0  0  0  0  0  0  0  0  0
   11.5090  -31.4290  -29.3060 C   0  0  0  0  0  0  0  0  0  0  0  0
    5.7650  -33.7990  -33.7870 C   0  0  0  0  0  0  0  0  0  0  0  0
   12.1710  -33.4700  -32.0450 C   0  0  0  0  0  0  0  0  0  0  0  0
   10.7280  -37.0210  -33.8290 C   0  0  0  0  0  0  0  0  0  0  0  0
    2.4320  -33.0730  -34.4430 N   0  0  0  0  0  0  0  0  0  0  0  0
    9.0660  -32.3540  -31.8520 O   0  0  0  0  0  0  0  0  0  0  0  0
   12.4050  -33.5780  -29.1640 C   0  0  2  0  0  0  0  0  0  0  0  0
   10.4880  -34.7160  -33.2190 C   0  0  0  0  0  0  0  0  0  0  0  0
   11.7200  -34.7790  -29.2900 F   0  0  0  0  0  0  0  0  0  0  0  0
    3.6980  -32.4950  -32.8440 C   0  0  0  0  0  0  0  0  0  0  0  0
   -0.1160  -31.3960  -33.0320 N   0  0  0  0  0  0  0  0  0  0  0  0
   10.0170  -35.7240  -33.9780 N   0  0  0  0  0  0  0  0  0  0  0  0
    3.6630  -33.5650  -34.6050 C   0  0  0  0  0  0  0  0  0  0  0  0
    9.6910  -35.5170  -35.3450 C   0  0  0  0  0  0  0  0  0  0  0  0
    3.8630  -31.6970  -31.5260 C   0  0  0  0  0  0  0  0  0  0  0  0
    6.9480  -32.3340  -31.7370 C   0  0  0  0  0  0  0  0  0  0  0  0
    8.1310  -32.4920  -30.8840 C   0  0  0  0  0  0  0  0  0  0  0  0
   11.6980  -34.2070  -33.1340 C   0  0  0  0  0  0  0  0  0  0  0  0
    0.8720  -31.1050  -32.3980 C   0  0  0  0  0  0  0  0  0  0  0  0
    5.9230  -34.6500  -34.3180 O   0  0  0  0  0  0  0  0  0  0  0  0
   11.2410  -33.0650  -31.1250 C   0  0  0  0  0  0  0  0  0  0  0  0
    2.6490  -32.3540  -33.2670 C   0  0  0  0  0  0  0  0  0  0  0  0
    2.8140  -30.7810  -31.0390 C   0  0  0  0  0  0  0  0  0  0  0  0
    1.4190  -30.5430  -31.4150 N   0  0  0  0  0  0  0  0  0  0  0  0
   10.1150  -32.8560  -31.7410 C   0  0  0  0  0  0  0  0  0  0  0  0
   13.3500  -33.4960  -28.3420 F   0  0  0  0  0  0  0  0  0  0  0  0
    1.5150  -31.8240  -33.3220 C   0  0  0  0  0  0  0  0  0  0  0  0
   11.7210  -32.6280  -29.8080 C   0  0  0  0  0  0  0  0  0  0  0  0
  1 29  2  0
  2  4  1  0
  2  1  1  0
  3 14  1  0
  4  6  1  1
  4 20  1  0
  6  3  1  0
  7 25  2  0
  9 26  1  0
 10 29  1  0
 10 21  1  0
 11 30  1  1
 12 22  2  0
 12  1  1  0
 13 11  1  0
 14 19  1  0
 15 23  1  0
 16  8  1  0
 16 12  1  0
 17  9  2  0
 17  3  1  0
 18 16  1  0
 19 27  1  0
 20 21  1  0
 22  7  1  0
 23 28  1  0
 24  6  2  0
 25 32  1  0
 26 14  2  0
 28 27  2  0
 29 25  1  0
 31 26  1  0
 31 23  2  0
 32  5  2  0
 32 11  1  0
M  END
$$$$

     RDKit          3D

 25 28  0  0  0  0  0  0  0  0999 V2000
    8.1490  -35.7120  -35.0620 C   0  0  0  0  0  0  0  0  0  0  0  0
    7.9140  -31.9630  -30.6330 C   0  0  0  0  0  0  0  0  0  0  0  0
    6.4590  -34.1050  -34.3770 C   0  0  2  0  0  0  0  0  0  0  0  0
    4.3620  -34.3250  -35.4020 C   0  0  0  0  0  0  0  0  0  0  0  0
   10.2140  -33.0700  -30.3480 C   0  0  0  0  0  0  0  0  0  0  0  0
   10.6170  -31.8640  -32.3810 O   0  0  0  0  0  0  0  0  0  0  0  0
    6.2340  -31.8810  -31.0820 C   0  0  0  0  0  0  0  0  0  0  0  0
   10.9440  -36.5460  -34.3380 C   0  0  0  0  0  0  0  0  0  0  0  0
    4.4310  -32.3340  -32.2760 O   0  0  0  0  0  0  0  0  0  0  0  0
    5.2830  -33.7100  -34.4280 C   0  0  0  0  0  0  0  0  0  0  0  0
    6.9150  -35.3410  -34.9870 C   0  0  1  0  0  0  0  0  0  0  0  0
    4.8700  -35.3520  -36.1770 C   0  0  0  0  0  0  0  0  0  0  0  0
    5.7170  -31.3240  -30.9590 O   0  0  0  0  0  0  0  0  0  0  0  0
    6.0110  -35.8450  -35.5990 C   0  0  0  0  0  0  0  0  0  0  0  0
    7.8310  -33.6120  -32.5800 C   0  0  0  0  0  0  0  0  0  0  0  0
    8.9800  -35.7320  -34.1440 C   0  0  2  0  0  0  0  0  0  0  0  0
   10.3650  -34.3400  -32.1430 O   0  0  0  0  0  0  0  0  0  0  0  0
    9.7530  -33.0060  -31.7050 C   0  0  1  0  0  0  0  0  0  0  0  0
    9.8440  -34.9660  -33.2320 C   0  0  1  0  0  0  0  0  0  0  0  0
    8.3840  -32.9740  -32.0570 C   0  0  2  0  0  0  0  0  0  0  0  0
    9.9490  -37.0000  -34.2940 C   0  0  0  0  0  0  0  0  0  0  0  0
   11.1030  -35.6920  -33.5500 C   0  0  0  0  0  0  0  0  0  0  0  0
    3.2620  -31.8430  -31.6640 C   0  0  0  0  0  0  0  0  0  0  0  0
    5.8920  -32.4930  -32.2910 C   0  0  2  0  0  0  0  0  0  0  0  0
    6.7310  -33.4250  -33.1000 C   0  0  0  0  0  0  0  0  0  0  0  0
 11  1  1  6
  3 10  1  0
  3 25  1  1
  4 10  2  0
  6 18  1  0
  7 13  2  0
  7  2  1  0
  8 21  1  0
  8 22  1  0
  9 23  1  0
 11 14  1  0
 11  3  1  0
 12 14  1  0
 12  4  1  0
 16  1  1  6
 16 19  1  0
 17 18  1  0
 18  5  1  1
 19 22  1  1
 19 17  1  0
 20 15  1  0
 20 18  1  0
 20  2  1  1
 21 16  1  0
 24  9  1  1
 24  7  1  0
 25 15  1  0
 25 24  1  0
M  END
$$$$

     RDKit          3D

 16 18  0  0  0  0  0  0  0  0999 V2000
   11.5430  -32.9890  -30.1070 N   0  0  0  0  0  0  0  0  0  0  0  0
    9.3050  -32.8110  -30.8720 C   0  0  0  0  0  0  0  0  0  0  0  0
   10.2700  -32.4750  -29.9660 C   0  0  0  0  0  0  0  0  0  0  0  0
    7.2000  -35.9100  -35.0580 N   0  0  0  0  0  0  0  0  0  0  0  0
    5.2420  -34.7670  -35.0510 C   0  0  0  0  0  0  0  0  0  0  0  0
   11.9190  -33.6980  -31.1080 C   0  0  0  0  0  0  0  0  0  0  0  0
    8.8530  -35.2720  -33.5490 C   0  0  0  0  0  0  0  0  0  0  0  0
    7.5550  -33.4730  -32.8420 N   0  0  0  0  0  0  0  0  0  0  0  0
   10.9950  -34.1140  -32.0780 C   0  0  0  0  0  0  0  0  0  0  0  0
    5.2250  -32.8550  -33.6470 C   0  0  0  0  0  0  0  0  0  0  0  0
    7.0290  -34.2180  -33.7270 C   0  0  0  0  0  0  0  0  0  0  0  0
    5.9390  -35.7710  -35.5000 C   0  0  0  0  0  0  0  0  0  0  0  0
    9.6590  -33.6990  -31.9130 C   0  0  0  0  0  0  0  0  0  0  0  0
    5.8600  -33.9360  -34.1480 C   0  0  0  0  0  0  0  0  0  0  0  0
    7.6440  -35.2110  -34.1770 C   0  0  0  0  0  0  0  0  0  0  0  0
    8.7130  -34.1750  -32.7510 C   0  0  0  0  0  0  0  0  0  0  0  0
  1  3  2  0
  2  3  1  0
  4 15  1  0
  5 14  2  0
  6  1  1  0
  7 16  1  0
  8 16  1  0
  9 13  1  0
  9  6  2  0
 11  8  2  0
 12  4  2  0
 12  5  1  0
 13  2  2  0
 14 11  1  0
 14 10  1  0
 15 11  1  0
 15  7  2  0
 16 13  1  0
M  END
$$$$

     RDKit          3D

 38 44  0  0  0  0  0  0  0  0999 V2000
    9.4250  -34.6750  -33.4120 C   0  0  0  0  0  0  0  0  0  0  0  0
    2.2340  -34.1760  -39.9490 N   0  0  0  0  0  0  0  0  0  0  0  0
    9.1470  -36.7870  -35.1230 C   0  0  0  0  0  0  0  0  0  0  0  0
    5.8550  -35.6260  -36.1400 C   0  0  0  0  0  0  0  0  0  0  0  0
    6.9000  -36.4520  -36.1720 N   0  0  0  0  0  0  0  0  0  0  0  0
    5.8240  -31.9500  -32.2560 C   0  0  0  0  0  0  0  0  0  0  0  0
    1.3420  -34.8770  -37.5310 N   0  0  0  0  0  0  0  0  0  0  0  0
   10.2010  -33.3710  -31.4910 C   0  0  0  0  0  0  0  0  0  0  0  0
   12.4800  -32.6740  -28.2370 C   0  0  1  0  0  0  0  0  0  0  0  0
    4.8290  -35.4640  -37.0540 C   0  0  0  0  0  0  0  0  0  0  0  0
   11.4720  -37.3040  -34.2740 N   0  0  0  0  0  0  0  0  0  0  0  0
   10.7490  -32.2370  -29.8670 C   0  0  0  0  0  0  0  0  0  0  0  0
   10.3380  -36.5770  -34.3190 C   0  0  0  0  0  0  0  0  0  0  0  0
   11.5660  -31.8120  -28.7050 C   0  0  1  0  0  0  0  0  0  0  0  0
    2.6100  -34.9240  -37.7560 C   0  0  0  0  0  0  0  0  0  0  0  0
    6.7390  -31.7820  -31.3390 C   0  0  0  0  0  0  0  0  0  0  0  0
    9.4850  -31.8320  -30.0610 N   0  0  0  0  0  0  0  0  0  0  0  0
    7.3900  -33.3480  -32.8590 C   0  0  0  0  0  0  0  0  0  0  0  0
   10.5100  -35.3320  -33.7230 C   0  0  0  0  0  0  0  0  0  0  0  0
    3.4840  -35.3940  -36.7660 C   0  0  0  0  0  0  0  0  0  0  0  0
    2.7500  -33.6390  -41.2770 C   0  0  0  0  0  0  0  0  0  0  0  0
    0.9150  -34.3730  -39.7410 C   0  0  0  0  0  0  0  0  0  0  0  0
   11.2110  -33.0760  -30.7340 C   0  0  0  0  0  0  0  0  0  0  0  0
   10.7920  -31.2470  -27.7860 F   0  0  0  0  0  0  0  0  0  0  0  0
    0.4780  -34.7100  -38.5720 C   0  0  0  0  0  0  0  0  0  0  0  0
    6.1040  -33.0260  -33.2010 N   0  0  0  0  0  0  0  0  0  0  0  0
    7.8980  -36.1060  -35.2400 N   0  0  0  0  0  0  0  0  0  0  0  0
    8.1340  -34.3380  -33.5880 C   0  0  0  0  0  0  0  0  0  0  0  0
    6.1270  -34.7590  -34.9610 C   0  0  0  0  0  0  0  0  0  0  0  0
   10.2520  -33.7660  -32.6340 N   0  0  0  0  0  0  0  0  0  0  0  0
    9.0970  -32.6120  -31.1080 N   0  0  0  0  0  0  0  0  0  0  0  0
   13.2590  -33.3400  -29.0340 F   0  0  0  0  0  0  0  0  0  0  0  0
    5.3060  -33.7280  -34.2390 C   0  0  0  0  0  0  0  0  0  0  0  0
    3.1530  -34.4770  -38.9420 C   0  0  0  0  0  0  0  0  0  0  0  0
   12.6290  -31.5890  -28.8340 F   0  0  0  0  0  0  0  0  0  0  0  0
    7.4120  -35.1100  -34.5300 C   0  0  0  0  0  0  0  0  0  0  0  0
   13.1430  -32.5220  -27.0970 F   0  0  0  0  0  0  0  0  0  0  0  0
    7.8310  -32.7080  -31.7560 C   0  0  0  0  0  0  0  0  0  0  0  0
  1 30  2  0
  2 22  1  0
  2 34  1  0
  3 13  1  0
  4 29  1  0
  5  4  2  0
  5 27  1  0
  6 16  2  0
  8 31  1  0
  8 23  2  0
  9 37  1  1
 10 20  2  3
 10  4  1  0
 12 14  1  0
 13 11  1  0
 13 19  2  0
 14  9  1  0
 14 24  1  1
 15  7  1  0
 15 20  1  0
 17 12  2  0
 18 38  2  0
 19  1  1  0
 21  2  1  0
 22 25  1  0
 23 12  1  0
 25  7  2  0
 26 18  1  0
 26  6  1  0
 27  3  1  0
 27 36  1  0
 28  1  1  0
 28 18  1  0
 29 36  1  0
 29 33  2  0
 30  8  1  0
 31 17  1  0
 32  9  1  0
 33 26  1  0
 34 15  2  0
 35 14  1  0
 36 28  2  0
 38 16  1  0
 38 31  1  0
M  END
$$$$

     RDKit          3D

 40 45  0  0  0  0  0  0  0  0999 V2000
    6.7790  -35.3780  -35.7020 C   0  0  0  0  0  0  0  0  0  0  0  0
    8.0300  -37.3390  -34.8350 C   0  0  0  0  0  0  0  0  0  0  0  0
    3.9690  -35.5860  -37.5730 O   0  0  0  0  0  0  0  0  0  0  0  0
   11.5360  -33.7320  -30.4990 C   0  0  0  0  0  0  0  0  0  0  0  0
   11.5620  -30.9090  -28.7950 O   0  0  0  0  0  0  0  0  0  0  0  0
    4.9120  -32.5750  -32.9030 C   0  0  0  0  0  0  0  0  0  0  0  0
   10.9480  -34.0710  -29.2130 O   0  0  0  0  0  0  0  0  0  0  0  0
    4.4120  -33.5960  -34.9550 C   0  0  0  0  0  0  0  0  0  0  0  0
    3.1320  -33.5070  -34.7150 C   0  0  0  0  0  0  0  0  0  0  0  0
    4.4740  -35.5680  -36.2620 C   0  0  1  0  0  0  0  0  0  0  0  0
    8.7130  -33.8120  -32.8560 C   0  0  0  0  0  0  0  0  0  0  0  0
    2.6210  -32.9010  -33.6140 C   0  0  0  0  0  0  0  0  0  0  0  0
    8.8710  -37.9340  -34.0820 C   0  0  0  0  0  0  0  0  0  0  0  0
    5.0610  -31.4850  -30.8120 O   0  0  0  0  0  0  0  0  0  0  0  0
    7.8360  -35.9770  -34.8340 N   0  0  0  0  0  0  0  0  0  0  0  0
    7.1080  -32.4430  -31.7760 C   0  0  0  0  0  0  0  0  0  0  0  0
   11.1880  -34.3890  -34.7620 O   0  0  0  0  0  0  0  0  0  0  0  0
    5.2470  -33.1660  -34.0740 C   0  0  0  0  0  0  0  0  0  0  0  0
   13.7690  -33.5420  -33.7760 C   0  0  0  0  0  0  0  0  0  0  0  0
   11.6090  -34.0500  -32.7830 C   0  0  1  0  0  0  0  0  0  0  0  0
    8.4520  -35.0880  -33.9240 C   0  0  2  0  0  0  0  0  0  0  0  0
   11.0080  -33.7220  -31.6270 C   0  0  0  0  0  0  0  0  0  0  0  0
    7.1180  -34.4300  -35.9970 O   0  0  0  0  0  0  0  0  0  0  0  0
    7.8890  -31.8810  -31.1250 C   0  0  0  0  0  0  0  0  0  0  0  0
    5.7010  -36.3290  -36.0870 C   0  0  0  0  0  0  0  0  0  0  0  0
    5.7580  -32.1150  -31.8940 C   0  0  1  0  0  0  0  0  0  0  0  0
   12.9810  -33.7680  -32.7120 C   0  0  0  0  0  0  0  0  0  0  0  0
    3.6690  -32.4120  -32.6690 C   0  0  0  0  0  0  0  0  0  0  0  0
    9.0870  -32.2670  -31.0020 C   0  0  0  0  0  0  0  0  0  0  0  0
    4.6360  -34.1250  -36.0650 O   0  0  0  0  0  0  0  0  0  0  0  0
   13.4580  -33.5490  -31.5840 C   0  0  0  0  0  0  0  0  0  0  0  0
    7.4850  -33.3370  -32.7360 C   0  0  0  0  0  0  0  0  0  0  0  0
    9.5060  -33.2550  -31.8370 C   0  0  0  0  0  0  0  0  0  0  0  0
    9.7770  -35.7250  -33.6490 N   0  0  0  0  0  0  0  0  0  0  0  0
   10.6750  -34.7990  -33.9290 C   0  0  0  0  0  0  0  0  0  0  0  0
   10.7190  -32.9630  -28.5990 C   0  0  0  0  0  0  0  0  0  0  0  0
   13.0810  -32.2290  -27.7580 O   0  0  0  0  0  0  0  0  0  0  0  0
   12.7370  -33.4640  -30.3110 C   0  0  0  0  0  0  0  0  0  0  0  0
   11.7860  -31.9570  -28.4060 N   0  0  0  0  0  0  0  0  0  0  0  0
    9.7750  -37.0950  -33.3590 C   0  0  0  0  0  0  0  0  0  0  0  0
  1 15  1  0
  2 15  1  0
  2 13  1  0
  4 38  1  0
  4  7  1  0
  5 39  1  0
  6 28  2  0
  6 26  1  0
  7 36  1  0
  8  9  1  0
  8 18  2  0
  9 12  2  0
 10  3  1  6
 10 25  1  0
 10 30  1  0
 11 32  2  0
 11 33  1  0
 12 28  1  0
 13 40  2  0
 21 15  1  1
 16 24  2  0
 17 35  2  0
 18  6  1  0
 19 27  1  0
 20 35  1  1
 20 27  1  0
 20 22  1  0
 21 34  1  0
 21 11  1  0
 22 33  1  0
 22  4  1  0
 23  1  2  0
 24 29  1  0
 25  1  1  0
 26 16  1  0
 26 14  1  1
 27 31  2  0
 30  8  1  0
 31 38  1  0
 32 16  1  0
 33 29  2  0
 34 40  1  0
 35 34  1  0
 36 39  1  0
 39 37  2  0
M  CHG  2   5  -1  39   1
M  END
$$$$

     RDKit          3D

 37 44  0  0  0  0  0  0  0  0999 V2000
    9.0560  -38.0170  -33.4170 C   0  0  0  0  0  0  0  0  0  0  0  0
    6.6890  -35.2500  -35.4380 C   0  0  0  0  0  0  0  0  0  0  0  0
    9.8960  -33.1950  -30.8870 N   0  0  0  0  0  0  0  0  0  0  0  0
   10.5120  -35.1440  -35.1490 C   0  0  0  0  0  0  0  0  0  0  0  0
    9.7340  -37.0250  -34.0280 C   0  0  0  0  0  0  0  0  0  0  0  0
   12.0910  -33.6210  -30.4810 C   0  0  2  0  0  0  0  0  0  0  0  0
    7.9440  -35.8250  -35.4090 N   0  0  0  0  0  0  0  0  0  0  0  0
    5.5830  -31.0400  -31.4300 C   0  0  0  0  0  0  0  0  0  0  0  0
    9.7890  -32.2370  -30.0350 C   0  0  0  0  0  0  0  0  0  0  0  0
   10.7310  -34.2880  -30.6020 C   0  0  0  0  0  0  0  0  0  0  0  0
   12.2520  -32.7570  -29.1890 C   0  0  0  0  0  0  0  0  0  0  0  0
    4.7840  -33.9040  -34.5000 C   0  0  0  0  0  0  0  0  0  0  0  0
    9.4670  -34.3790  -32.7640 N   0  0  0  0  0  0  0  0  0  0  0  0
    7.9280  -31.8160  -30.9460 C   0  0  0  0  0  0  0  0  0  0  0  0
    7.9610  -32.7310  -32.0060 C   0  0  0  0  0  0  0  0  0  0  0  0
    9.2650  -33.2240  -32.0670 C   0  0  1  0  0  0  0  0  0  0  0  0
   11.0150  -32.0420  -28.9240 C   0  0  0  0  0  0  0  0  0  0  0  0
   11.1770  -39.2490  -33.3430 C   0  0  0  0  0  0  0  0  0  0  0  0
   11.8440  -38.1700  -33.9560 C   0  0  0  0  0  0  0  0  0  0  0  0
   12.7720  -33.3260  -32.7710 C   0  0  0  0  0  0  0  0  0  0  0  0
   11.1160  -37.0250  -34.3000 C   0  0  0  0  0  0  0  0  0  0  0  0
    3.9480  -34.4520  -35.5050 C   0  0  0  0  0  0  0  0  0  0  0  0
   12.3660  -32.9840  -31.7880 C   0  0  0  0  0  0  0  0  0  0  0  0
    6.1400  -34.3850  -34.4660 C   0  0  0  0  0  0  0  0  0  0  0  0
    6.6940  -31.0940  -30.5680 O   0  0  0  0  0  0  0  0  0  0  0  0
    6.8280  -32.9650  -32.6690 C   0  0  2  0  0  0  0  0  0  0  0  0
   11.8770  -40.4120  -33.0410 F   0  0  0  0  0  0  0  0  0  0  0  0
    9.8350  -39.1600  -33.0760 C   0  0  0  0  0  0  0  0  0  0  0  0
    4.4740  -35.2830  -36.4580 C   0  0  0  0  0  0  0  0  0  0  0  0
    9.2120  -35.7040  -34.5970 C   0  0  2  0  0  0  0  0  0  0  0  0
    8.7960  -31.4760  -29.9700 N   0  0  0  0  0  0  0  0  0  0  0  0
    2.5980  -34.1810  -35.5820 N   0  0  0  0  0  0  0  0  0  0  0  0
    7.1970  -34.1850  -33.5370 C   0  0  2  0  0  0  0  0  0  0  0  0
   11.5240  -36.0240  -34.9480 N   0  0  0  0  0  0  0  0  0  0  0  0
    5.6320  -32.0300  -32.6500 C   0  0  0  0  0  0  0  0  0  0  0  0
    5.7940  -35.6690  -36.3530 C   0  0  0  0  0  0  0  0  0  0  0  0
    8.6550  -34.4230  -33.7950 C   0  0  1  0  0  0  0  0  0  0  0  0
  1 28  2  0
  2  7  1  0
  2 24  2  0
  3 10  1  0
  3  9  1  0
  4 34  2  0
  5  1  1  0
  6 23  1  6
  6 11  1  0
 30  7  1  6
  8 25  1  0
  9 31  1  0
  9 17  2  0
 10  6  1  0
 11 17  1  0
 12 24  1  0
 14 25  1  0
 14 31  2  0
 15 14  1  0
 16 13  1  1
 16 15  1  0
 16  3  1  0
 18 28  1  0
 18 27  1  0
 19 18  2  0
 20 23  2  0
 21  5  2  0
 21 19  1  0
 22 12  2  0
 26 35  1  6
 26 15  1  0
 29 36  2  0
 29 22  1  0
 30  4  1  0
 30  5  1  0
 30 37  1  0
 32 22  1  0
 33 24  1  6
 33 26  1  0
 34 21  1  0
 35  8  1  0
 36  2  1  0
 37 33  1  0
 37 13  1  1
M  END
$$$$

     RDKit          3D

 27 31  0  0  0  0  0  0  0  0999 V2000
    7.6820  -30.8780  -30.7290 O   0  0  0  0  0  0  0  0  0  0  0  0
    5.2480  -32.5780  -32.8260 C   0  0  0  0  0  0  0  0  0  0  0  0
    8.5110  -34.4630  -33.1200 C   0  0  0  0  0  0  0  0  0  0  0  0
    8.7650  -33.0540  -31.5190 C   0  0  0  0  0  0  0  0  0  0  0  0
    5.8990  -34.4620  -34.4970 C   0  0  0  0  0  0  0  0  0  0  0  0
   10.0110  -33.7700  -31.4890 C   0  0  0  0  0  0  0  0  0  0  0  0
    8.2940  -35.2380  -34.2070 C   0  0  2  0  0  0  0  0  0  0  0  0
    4.6660  -34.5750  -35.1770 C   0  0  0  0  0  0  0  0  0  0  0  0
    5.3860  -36.4670  -36.7250 C   0  0  0  0  0  0  0  0  0  0  0  0
    3.6470  -33.8680  -34.8730 O   0  0  0  0  0  0  0  0  0  0  0  0
    5.5860  -31.7020  -31.8290 C   0  0  0  0  0  0  0  0  0  0  0  0
    6.6560  -35.7220  -37.2010 C   0  0  0  0  0  0  0  0  0  0  0  0
   11.2570  -33.2610  -28.5760 O   0  0  0  0  0  0  0  0  0  0  0  0
    9.8040  -34.5920  -32.5340 C   0  0  0  0  0  0  0  0  0  0  0  0
    7.3970  -33.4790  -32.8030 C   0  0  0  0  0  0  0  0  0  0  0  0
    4.4630  -35.6030  -36.0960 N   0  0  0  0  0  0  0  0  0  0  0  0
    6.9230  -31.6760  -31.4620 C   0  0  0  0  0  0  0  0  0  0  0  0
   12.4790  -33.8030  -28.9640 C   0  0  0  0  0  0  0  0  0  0  0  0
   10.7790  -35.4230  -32.9580 C   0  0  0  0  0  0  0  0  0  0  0  0
   10.8540  -32.4390  -29.6800 C   0  0  0  0  0  0  0  0  0  0  0  0
   12.2460  -34.4210  -30.3000 C   0  0  0  0  0  0  0  0  0  0  0  0
   10.4670  -36.2390  -34.0900 C   0  0  0  0  0  0  0  0  0  0  0  0
    7.6810  -32.6540  -31.9760 C   0  0  0  0  0  0  0  0  0  0  0  0
    9.2380  -36.0870  -34.7180 C   0  0  0  0  0  0  0  0  0  0  0  0
    6.0540  -33.4790  -33.4670 C   0  0  0  0  0  0  0  0  0  0  0  0
    7.1310  -35.1300  -34.8880 O   0  0  0  0  0  0  0  0  0  0  0  0
   11.2280  -33.3580  -30.8490 C   0  0  1  0  0  0  0  0  0  0  0  0
  2 11  2  0
  3 15  2  0
  3 14  1  0
  4  6  2  0
  5 25  2  0
  7 24  1  0
  7  3  1  0
  8 10  2  0
  8  5  1  0
  9 16  1  0
 11 17  1  0
 12  9  1  0
 14  6  1  0
 15 23  1  0
 16  8  1  0
 17  1  1  0
 18 13  1  0
 19 14  2  0
 20 13  1  0
 21 18  1  0
 22 19  1  0
 23  4  1  0
 23 17  2  0
 24 22  2  0
 25  2  1  0
 25 15  1  0
 26  5  1  0
  7 26  1  6
 27  6  1  1
 27 21  1  0
 27 20  1  0
M  END
$$$$

     RDKit          3D

 20 26  0  0  0  0  0  0  0  0999 V2000
   11.6630  -34.1210  -33.0980 C   0  0  0  0  0  0  0  0  0  0  0  0
    9.7740  -34.5820  -31.9370 C   0  0  1  0  0  0  0  0  0  0  0  0
    6.4630  -32.9160  -33.3290 C   0  0  0  0  0  0  0  0  0  0  0  0
    6.4710  -35.0830  -35.1820 C   0  0  0  0  0  0  0  0  0  0  0  0
   10.5140  -33.9840  -32.3590 C   0  0  1  0  0  0  0  0  0  0  0  0
    6.7210  -31.5550  -31.1560 O   0  0  0  0  0  0  0  0  0  0  0  0
    7.9320  -34.3460  -33.6350 C   0  0  0  0  0  0  0  0  0  0  0  0
    8.3610  -35.1680  -34.1050 C   0  0  0  0  0  0  0  0  0  0  0  0
    5.9010  -34.2260  -34.6400 C   0  0  0  0  0  0  0  0  0  0  0  0
    9.3370  -32.6420  -31.0270 C   0  0  0  0  0  0  0  0  0  0  0  0
    8.7000  -33.7980  -32.5130 C   0  0  2  0  0  0  0  0  0  0  0  0
    9.1560  -34.8110  -33.0460 C   0  0  0  0  0  0  0  0  0  0  0  0
    9.1380  -35.6470  -33.9430 C   0  0  2  0  0  0  0  0  0  0  0  0
    7.7910  -35.3540  -34.8890 C   0  0  0  0  0  0  0  0  0  0  0  0
    8.3140  -32.8490  -31.8710 C   0  0  1  0  0  0  0  0  0  0  0  0
   10.2140  -35.5290  -33.9970 S   0  0  0  0  0  0  0  0  0  0  0  0
    4.8660  -33.7580  -34.7830 O   0  0  0  0  0  0  0  0  0  0  0  0
    7.0990  -32.4150  -32.0280 C   0  0  0  0  0  0  0  0  0  0  0  0
    6.9090  -33.9530  -33.8250 C   0  0  2  0  0  0  0  0  0  0  0  0
   10.3290  -33.6130  -31.2030 C   0  0  1  0  0  0  0  0  0  0  0  0
  5  1  1  1
  2 20  1  0
  3 18  1  0
  4 14  1  0
  4  9  1  0
  5  2  1  0
  5 20  1  0
  7 11  1  0
  8 13  1  0
  8  7  2  0
  9 19  1  0
 11  2  1  0
 11 15  1  0
 11 12  1  6
  2 12  1  1
 13 12  1  0
 14  8  1  0
 15 10  1  1
 13 16  1  6
 16  1  1  0
 17  9  2  0
 18 15  1  0
 18  6  2  0
 19  7  1  0
 19  3  1  6
 20 10  1  6
M  END
$$$$

     RDKit          3D

 21 23  0  0  0  0  0  0  0  0999 V2000
    9.6850  -36.4860  -34.5570 C   0  0  0  0  0  0  0  0  0  0  0  0
    8.1590  -34.4870  -33.6760 C   0  0  1  0  0  0  0  0  0  0  0  0
    4.6690  -31.7180  -31.7220 C   0  0  0  0  0  0  0  0  0  0  0  0
    9.5350  -33.1970  -31.4530 C   0  0  0  0  0  0  0  0  0  0  0  0
    5.7430  -31.3250  -30.9630 C   0  0  0  0  0  0  0  0  0  0  0  0
    7.5780  -32.4820  -32.2260 C   0  0  0  0  0  0  0  0  0  0  0  0
   11.1500  -33.1460  -32.6810 C   0  0  0  0  0  0  0  0  0  0  0  0
    6.5520  -32.9970  -32.9140 C   0  0  0  0  0  0  0  0  0  0  0  0
    7.4060  -35.6920  -36.5710 C   0  0  0  0  0  0  0  0  0  0  0  0
    9.1800  -35.6280  -34.8980 C   0  0  0  0  0  0  0  0  0  0  0  0
    7.0080  -31.7140  -31.1030 C   0  0  0  0  0  0  0  0  0  0  0  0
    7.2520  -34.2540  -33.7950 C   0  0  1  0  0  0  0  0  0  0  0  0
    5.2910  -32.8560  -32.7490 C   0  0  0  0  0  0  0  0  0  0  0  0
   10.3960  -32.9770  -31.9180 C   0  0  0  0  0  0  0  0  0  0  0  0
    8.3040  -35.3790  -35.5410 C   0  0  2  0  0  0  0  0  0  0  0  0
    6.4970  -34.5350  -34.6230 C   0  0  0  0  0  0  0  0  0  0  0  0
    7.8720  -35.4530  -35.2600 C   0  0  2  0  0  0  0  0  0  0  0  0
    9.1810  -34.6810  -33.5920 C   0  0  0  0  0  0  0  0  0  0  0  0
    8.4540  -32.9700  -32.2910 C   0  0  0  0  0  0  0  0  0  0  0  0
   10.5080  -34.2930  -33.3080 C   0  0  0  0  0  0  0  0  0  0  0  0
   11.4440  -35.0110  -33.6100 O   0  0  0  0  0  0  0  0  0  0  0  0
  2 18  1  6
  3  5  2  0
  6 11  2  0
  7 14  1  0
  8 13  2  0
  8  6  1  0
 10  1  2  0
 11  5  1  0
 12 16  1  6
 12  2  1  0
 12  8  1  0
 13  3  1  0
 14  4  1  0
 15  9  1  6
 15 10  1  0
 17 15  1  0
 17 16  1  6
 17  2  1  0
 18 20  1  0
 19  6  1  0
 19  4  1  0
 20  7  1  0
 21 20  2  0
M  END
$$$$

     RDKit          3D

 26 30  0  0  0  0  0  0  0  0999 V2000
    8.5080  -34.7060  -34.6510 C   0  0  0  0  0  0  0  0  0  0  0  0
    9.6540  -35.1090  -35.5120 O   0  0  0  0  0  0  0  0  0  0  0  0
    7.2530  -35.2490  -35.5040 C   0  0  0  0  0  0  0  0  0  0  0  0
    4.4770  -32.2480  -33.4130 O   0  0  0  0  0  0  0  0  0  0  0  0
   10.3190  -33.5900  -33.4530 C   0  0  0  0  0  0  0  0  0  0  0  0
    4.0470  -34.5380  -35.5140 C   0  0  0  0  0  0  0  0  0  0  0  0
    6.9870  -31.4600  -31.2920 N   0  0  0  0  0  0  0  0  0  0  0  0
    6.0790  -33.7260  -33.0530 C   0  0  2  0  0  0  0  0  0  0  0  0
    6.5770  -34.3180  -33.6510 C   0  0  1  0  0  0  0  0  0  0  0  0
    8.6330  -34.7600  -33.1500 N   0  0  0  0  0  0  0  0  0  0  0  0
    6.0930  -35.4170  -35.6230 C   0  0  1  0  0  0  0  0  0  0  0  0
    8.0670  -32.2080  -31.6940 C   0  0  1  0  0  0  0  0  0  0  0  0
    9.6160  -32.2000  -32.3880 C   0  0  1  0  0  0  0  0  0  0  0  0
    3.6080  -34.6760  -37.8200 C   0  0  0  0  0  0  0  0  0  0  0  0
    4.1990  -34.8340  -36.5810 N   0  0  0  0  0  0  0  0  0  0  0  0
    8.8010  -33.9610  -32.2650 C   0  0  1  0  0  0  0  0  0  0  0  0
    8.2660  -34.4810  -31.8540 C   0  0  2  0  0  0  0  0  0  0  0  0
    5.3650  -34.3060  -34.8690 C   0  0  1  0  0  0  0  0  0  0  0  0
    5.7560  -32.2890  -32.7950 C   0  0  2  0  0  0  0  0  0  0  0  0
    9.0940  -32.7950  -30.3840 C   0  0  0  0  0  0  0  0  0  0  0  0
    6.1030  -31.4270  -31.9150 C   0  0  0  0  0  0  0  0  0  0  0  0
    7.6430  -34.8350  -34.2510 C   0  0  2  0  0  0  0  0  0  0  0  0
    6.9980  -34.1120  -32.2730 C   0  0  0  0  0  0  0  0  0  0  0  0
    5.5240  -34.9960  -36.8790 C   0  0  0  0  0  0  0  0  0  0  0  0
    9.1980  -33.8490  -31.5300 C   0  0  1  0  0  0  0  0  0  0  0  0
    6.2200  -34.7740  -37.4610 C   0  0  0  0  0  0  0  0  0  0  0  0
  2  1  1  0
  3 22  1  0
  8 19  1  0
  8 23  1  1
  9  8  1  0
 11  3  1  6
 11 18  1  0
 12  7  1  0
 12 20  1  1
 13  5  1  6
 13 12  1  0
 13 25  1  0
 14 15  1  0
 15  6  1  0
 16 10  1  6
 16 17  1  0
 16 25  1  0
 17 23  1  1
 17 25  1  0
 18  6  1  1
 18  9  1  0
 19  4  1  1
 19 21  1  0
 21  7  1  0
 22  1  1  6
  9 22  1  6
 24 15  1  0
 24 11  1  0
 25 20  1  6
 26 24  2  0
M  END
$$$$

     RDKit          3D

 24 27  0  0  0  0  0  0  0  0999 V2000
    5.8280  -34.6160  -34.6500 C   0  0  0  0  0  0  0  0  0  0  0  0
   10.3280  -33.6430  -30.3660 C   0  0  0  0  0  0  0  0  0  0  0  0
   10.5970  -34.3550  -32.6720 C   0  0  0  0  0  0  0  0  0  0  0  0
   11.9200  -33.8090  -32.5890 C   0  0  0  0  0  0  0  0  0  0  0  0
    4.4060  -33.2490  -33.4070 C   0  0  0  0  0  0  0  0  0  0  0  0
    8.9220  -35.0660  -34.6220 C   0  0  1  0  0  0  0  0  0  0  0  0
    6.3520  -32.9570  -32.4920 C   0  0  0  0  0  0  0  0  0  0  0  0
    6.8960  -35.0570  -35.2500 C   0  0  0  0  0  0  0  0  0  0  0  0
    9.7910  -34.0490  -31.5330 C   0  0  0  0  0  0  0  0  0  0  0  0
    5.5580  -32.0530  -31.9440 C   0  0  0  0  0  0  0  0  0  0  0  0
   11.6530  -33.2820  -30.3000 C   0  0  0  0  0  0  0  0  0  0  0  0
    8.0290  -34.2010  -33.6330 C   0  0  0  0  0  0  0  0  0  0  0  0
    5.0640  -34.4120  -35.6900 C   0  0  0  0  0  0  0  0  0  0  0  0
   12.4360  -33.3220  -31.4700 C   0  0  0  0  0  0  0  0  0  0  0  0
    4.4250  -32.2850  -32.5730 C   0  0  0  0  0  0  0  0  0  0  0  0
   10.2470  -35.0820  -33.8900 C   0  0  0  0  0  0  0  0  0  0  0  0
    6.7280  -34.6280  -33.9890 C   0  0  1  0  0  0  0  0  0  0  0  0
    9.5400  -35.7390  -34.8590 S   0  0  0  0  0  0  0  0  0  0  0  0
    7.7840  -35.2700  -35.7990 C   0  0  0  0  0  0  0  0  0  0  0  0
    7.6260  -33.1260  -32.2910 C   0  0  0  0  0  0  0  0  0  0  0  0
   11.3140  -36.0230  -33.8850 O   0  0  0  0  0  0  0  0  0  0  0  0
    7.9630  -35.0480  -35.1140 C   0  0  1  0  0  0  0  0  0  0  0  0
    8.1150  -35.1010  -34.2380 C   0  0  1  0  0  0  0  0  0  0  0  0
    5.7770  -33.7260  -33.5940 C   0  0  2  0  0  0  0  0  0  0  0  0
  1 17  1  0
  1 24  1  0
  2 11  2  0
  3  4  1  0
  3  9  2  0
  4 14  2  0
  5 15  2  0
  6 18  1  6
  6 23  1  0
  7 20  2  0
  7 10  1  0
  9  2  1  0
 13  1  2  0
 14 11  1  0
 15 10  1  0
 16 21  2  0
 16  3  1  0
 17 12  1  6
 17 24  1  0
 18 16  1  0
 19  8  1  0
 22 19  1  6
 22  6  1  0
 22 23  1  0
 23 12  1  1
 24  5  1  1
 24  7  1  0
M  END
$$$$

     RDKit          3D

 24 29  0  0  0  0  0  0  0  0999 V2000
    9.4120  -32.5960  -31.1440 C   0  0  1  0  0  0  0  0  0  0  0  0
    7.5340  -33.1740  -32.6870 C   0  0  0  0  0  0  0  0  0  0  0  0
    9.5170  -34.3670  -32.7830 C   0  0  2  0  0  0  0  0  0  0  0  0
   10.5440  -32.8610  -31.3380 C   0  0  2  0  0  0  0  0  0  0  0  0
    5.8310  -31.8090  -32.2120 C   0  0  0  0  0  0  0  0  0  0  0  0
    6.4840  -32.6800  -32.8240 C   0  0  0  0  0  0  0  0  0  0  0  0
    6.3190  -31.2540  -31.2250 C   0  0  0  0  0  0  0  0  0  0  0  0
    9.0600  -35.3400  -33.6050 C   0  0  1  0  0  0  0  0  0  0  0  0
   12.5750  -33.3760  -31.3900 C   0  0  0  0  0  0  0  0  0  0  0  0
    5.4040  -33.8650  -34.6510 C   0  0  0  0  0  0  0  0  0  0  0  0
    4.9190  -34.6360  -35.3100 N   0  0  0  0  0  0  0  0  0  0  0  0
    5.5770  -35.7420  -35.5210 N   0  0  0  0  0  0  0  0  0  0  0  0
    6.6850  -35.6260  -34.9000 C   0  0  0  0  0  0  0  0  0  0  0  0
   11.4120  -33.5800  -31.6100 C   0  0  0  0  0  0  0  0  0  0  0  0
    6.7330  -34.4830  -34.3000 C   0  0  2  0  0  0  0  0  0  0  0  0
   11.6390  -34.7350  -33.4900 C   0  0  0  0  0  0  0  0  0  0  0  0
    7.4150  -31.5610  -30.7670 C   0  0  0  0  0  0  0  0  0  0  0  0
    8.0960  -34.1200  -33.2840 C   0  0  2  0  0  0  0  0  0  0  0  0
   12.8090  -34.4900  -33.3940 O   0  0  0  0  0  0  0  0  0  0  0  0
   10.0870  -32.1050  -30.0630 O   0  0  0  0  0  0  0  0  0  0  0  0
    8.1980  -32.4840  -31.4510 C   0  0  0  0  0  0  0  0  0  0  0  0
    9.9160  -35.4350  -34.7280 C   0  0  0  0  0  0  0  0  0  0  0  0
   11.2770  -35.3660  -34.6510 C   0  0  0  0  0  0  0  0  0  0  0  0
   10.8280  -34.3790  -32.5040 C   0  0  2  0  0  0  0  0  0  0  0  0
  1 21  1  0
  1 20  1  6
  2 21  1  0
  3 24  1  6
  4  1  1  0
  4 20  1  1
  5  7  2  0
  6  2  2  0
  6  5  1  0
  7 17  1  0
  8 18  1  0
  8  3  1  0
 15 10  1  1
 11 10  2  0
 12 11  1  0
 12 13  2  0
 13 15  1  0
 14  9  2  0
 14  4  1  0
 15 18  1  0
 16 19  2  0
 24 16  1  6
 18  3  1  0
 18  2  1  1
 21 17  2  0
 22 23  1  0
  8 22  1  6
 23 16  1  0
 24 14  1  0
M  END
$$$$

     RDKit          3D

 25 28  0  0  0  0  0  0  0  0999 V2000
    7.0460  -34.6200  -34.2710 C   0  0  2  0  0  0  0  0  0  0  0  0
    4.3110  -35.6260  -35.7560 C   0  0  0  0  0  0  0  0  0  0  0  0
    5.9960  -32.7610  -33.1260 C   0  0  2  0  0  0  0  0  0  0  0  0
   13.1310  -33.6300  -32.7740 C   0  0  0  0  0  0  0  0  0  0  0  0
   11.3640  -33.7040  -30.9690 C   0  0  0  0  0  0  0  0  0  0  0  0
    5.7790  -34.4350  -34.7770 C   0  0  1  0  0  0  0  0  0  0  0  0
   11.4930  -34.6340  -33.8020 C   0  0  0  0  0  0  0  0  0  0  0  0
    3.7260  -33.0870  -35.1630 C   0  0  0  0  0  0  0  0  0  0  0  0
    5.8770  -33.8280  -33.7110 C   0  0  1  0  0  0  0  0  0  0  0  0
    8.6510  -36.5360  -34.5990 C   0  0  0  0  0  0  0  0  0  0  0  0
    7.9420  -34.1090  -33.4680 C   0  0  1  0  0  0  0  0  0  0  0  0
   10.3800  -34.1710  -33.0330 C   0  0  1  0  0  0  0  0  0  0  0  0
    9.3540  -34.5080  -33.6290 N   0  0  0  0  0  0  0  0  0  0  0  0
    3.9830  -32.2170  -31.9800 O   0  0  0  0  0  0  0  0  0  0  0  0
    5.8700  -31.3770  -31.1940 O   0  0  0  0  0  0  0  0  0  0  0  0
    3.0040  -31.4450  -31.3640 C   0  0  0  0  0  0  0  0  0  0  0  0
    7.5760  -32.7990  -32.8040 C   0  0  0  0  0  0  0  0  0  0  0  0
   10.2840  -33.9780  -31.6830 C   0  0  0  0  0  0  0  0  0  0  0  0
    4.6540  -34.1600  -35.7380 C   0  0  2  0  0  0  0  0  0  0  0  0
    6.8050  -36.2950  -35.6910 O   0  0  0  0  0  0  0  0  0  0  0  0
   12.6030  -33.9030  -33.8370 C   0  0  0  0  0  0  0  0  0  0  0  0
    9.7310  -35.7190  -34.6440 C   0  0  0  0  0  0  0  0  0  0  0  0
    7.2920  -35.6580  -35.0270 C   0  0  0  0  0  0  0  0  0  0  0  0
   12.5280  -33.0770  -31.7690 C   0  0  0  0  0  0  0  0  0  0  0  0
    5.2940  -31.9990  -32.0430 C   0  0  0  0  0  0  0  0  0  0  0  0
  1 23  1  1
  1  9  1  0
  1 11  1  0
 19  2  1  1
  3 17  1  0
  3 25  1  1
  4 24  1  0
  6 19  1  6
  6  1  1  0
  6  9  1  0
  7 12  1  0
  9  3  1  6
 11 17  1  6
 12 18  1  0
 13 11  1  0
 12 13  1  1
 14 16  1  0
 18  5  1  0
 19  8  1  0
 20 23  2  0
 21  7  1  0
 21  4  1  0
 22 10  1  0
 22 13  1  0
 23 10  1  0
 24  5  1  0
 25 14  1  0
 25 15  2  0
M  END
$$$$

     RDKit          3D

 28 31  0  0  0  0  0  0  0  0999 V2000
    3.4330  -34.6160  -38.9760 O   0  0  0  0  0  0  0  0  0  0  0  0
    2.8350  -31.8970  -32.0490 C   0  0  0  0  0  0  0  0  0  0  0  0
    4.8240  -33.9800  -33.9080 C   0  0  0  0  0  0  0  0  0  0  0  0
    4.9810  -34.7270  -37.2880 C   0  0  0  0  0  0  0  0  0  0  0  0
    5.2220  -32.8400  -32.8580 C   0  0  1  0  0  0  0  0  0  0  0  0
   11.9230  -32.8680  -29.0500 C   0  0  0  0  0  0  0  0  0  0  0  0
    8.4950  -35.5800  -34.7720 C   0  0  2  0  0  0  0  0  0  0  0  0
    8.2990  -34.5340  -33.9210 C   0  0  0  0  0  0  0  0  0  0  0  0
    2.9260  -34.9430  -37.7880 C   0  0  0  0  0  0  0  0  0  0  0  0
    3.7090  -34.2940  -34.0630 O   0  0  0  0  0  0  0  0  0  0  0  0
    7.1020  -34.2110  -33.8680 C   0  0  0  0  0  0  0  0  0  0  0  0
   12.4270  -33.3770  -30.2100 C   0  0  0  0  0  0  0  0  0  0  0  0
   10.5060  -32.5410  -28.8870 C   0  0  0  0  0  0  0  0  0  0  0  0
    7.3880  -36.2810  -35.1890 N   0  0  0  0  0  0  0  0  0  0  0  0
   12.0440  -34.2380  -32.0810 F   0  0  0  0  0  0  0  0  0  0  0  0
    7.9420  -32.4180  -32.0590 C   0  0  0  0  0  0  0  0  0  0  0  0
    6.4820  -32.1210  -32.4200 C   0  0  0  0  0  0  0  0  0  0  0  0
    9.2940  -33.2210  -32.2700 C   0  0  0  0  0  0  0  0  0  0  0  0
    4.0820  -32.1970  -32.4050 O   0  0  0  0  0  0  0  0  0  0  0  0
    9.8220  -36.0640  -34.7060 C   0  0  0  0  0  0  0  0  0  0  0  0
   10.4920  -35.2390  -33.8830 C   0  0  0  0  0  0  0  0  0  0  0  0
   11.5520  -33.5360  -31.2360 C   0  0  0  0  0  0  0  0  0  0  0  0
    5.1750  -34.9570  -36.0390 C   0  0  1  0  0  0  0  0  0  0  0  0
    5.9130  -34.4710  -34.4840 N   0  0  0  0  0  0  0  0  0  0  0  0
    9.4310  -34.3610  -33.2010 C   0  0  2  0  0  0  0  0  0  0  0  0
   10.2020  -33.0890  -31.2700 C   0  0  0  0  0  0  0  0  0  0  0  0
    9.7030  -32.5930  -29.9980 C   0  0  0  0  0  0  0  0  0  0  0  0
    3.8710  -35.4790  -36.7110 C   0  0  2  0  0  0  0  0  0  0  0  0
  1  9  1  0
  3  5  1  0
  4 28  1  0
  5 17  1  0
  5 19  1  6
  6 13  2  0
  7 14  1  1
  7 20  1  0
  7  8  1  0
  8 11  2  3
  8 25  1  0
 10  3  2  0
 12  6  1  0
 15 22  1  0
 17 16  1  0
 18 16  2  3
 18 26  1  0
 19  2  1  0
 20 21  1  0
 22 12  2  0
 23  4  1  0
 23 24  1  1
 24  3  1  0
 24 11  1  0
 25 21  1  6
 25 18  1  0
 26 22  1  0
 26 27  2  0
 27 13  1  0
 28  9  1  1
 28 23  1  0
M  END
$$$$

     RDKit          3D

 24 27  0  0  0  0  0  0  0  0999 V2000
    5.9910  -34.1500  -34.3160 C   0  0  0  0  0  0  0  0  0  0  0  0
    6.3360  -32.7650  -32.5890 C   0  0  0  0  0  0  0  0  0  0  0  0
    6.0530  -31.7830  -31.8200 C   0  0  0  0  0  0  0  0  0  0  0  0
   10.1140  -34.1570  -32.6780 C   0  0  0  0  0  0  0  0  0  0  0  0
    8.3740  -32.6490  -31.6930 C   0  0  0  0  0  0  0  0  0  0  0  0
    7.9120  -34.0710  -33.8610 C   0  0  0  0  0  0  0  0  0  0  0  0
    9.8090  -34.9630  -33.9000 C   0  0  0  0  0  0  0  0  0  0  0  0
    9.1760  -34.3810  -33.3310 C   0  0  2  0  0  0  0  0  0  0  0  0
    4.7500  -31.3820  -31.6370 C   0  0  0  0  0  0  0  0  0  0  0  0
    8.6630  -33.8690  -33.7080 C   0  0  2  0  0  0  0  0  0  0  0  0
    9.6830  -33.1710  -31.6760 C   0  0  0  0  0  0  0  0  0  0  0  0
    7.7120  -33.1450  -32.8060 C   0  0  0  0  0  0  0  0  0  0  0  0
   10.3350  -32.6550  -30.5700 C   0  0  0  0  0  0  0  0  0  0  0  0
    5.6980  -34.9050  -34.7430 O   0  0  0  0  0  0  0  0  0  0  0  0
    8.2900  -35.3590  -33.9060 C   0  0  2  0  0  0  0  0  0  0  0  0
    4.0940  -33.1870  -33.0530 C   0  0  0  0  0  0  0  0  0  0  0  0
   12.0360  -34.1680  -30.9770 C   0  0  0  0  0  0  0  0  0  0  0  0
    6.1650  -34.8060  -35.7190 C   0  0  0  0  0  0  0  0  0  0  0  0
    5.4360  -33.3780  -33.3310 C   0  0  0  0  0  0  0  0  0  0  0  0
   11.3800  -34.5200  -32.3180 C   0  0  0  0  0  0  0  0  0  0  0  0
   11.6070  -33.1870  -30.3230 C   0  0  0  0  0  0  0  0  0  0  0  0
   12.3000  -32.7700  -29.2690 F   0  0  0  0  0  0  0  0  0  0  0  0
    3.7380  -32.1300  -32.2710 C   0  0  0  0  0  0  0  0  0  0  0  0
    8.3920  -35.8910  -34.6020 C   0  0  0  0  0  0  0  0  0  0  0  0
  1 19  1  0
  2  3  2  0
  3  9  1  0
  4 20  2  0
  4 11  1  0
  5 11  1  0
  8  7  1  6
  8  4  1  0
 10  6  1  6
 10  8  1  0
 10 12  1  0
 11 13  2  0
 12  2  1  0
 12  5  1  0
 13 21  1  0
 14  1  1  0
 15 24  1  6
 15  6  1  0
 15  8  1  0
 16 23  1  0
 17 21  2  0
 18 14  1  0
 19 16  2  0
 19  2  1  0
 20 17  1  0
 21 22  1  0
 23  9  2  0
M  END
$$$$

     RDKit          3D

 27 28  0  0  0  0  0  0  0  0999 V2000
    5.8110  -35.7310  -36.4260 O   0  0  0  0  0  0  0  0  0  0  0  0
    4.2310  -34.0550  -35.7310 F   0  0  0  0  0  0  0  0  0  0  0  0
    3.6480  -36.3510  -36.2040 F   0  0  0  0  0  0  0  0  0  0  0  0
    5.5650  -32.3040  -32.6050 C   0  0  0  0  0  0  0  0  0  0  0  0
   10.7210  -34.2460  -32.8440 C   0  0  0  0  0  0  0  0  0  0  0  0
    9.3590  -33.8970  -32.7310 N   0  0  0  0  0  0  0  0  0  0  0  0
    4.5000  -35.2750  -36.3750 C   0  0  2  0  0  0  0  0  0  0  0  0
    6.6970  -32.7370  -32.6470 C   0  0  0  0  0  0  0  0  0  0  0  0
    8.4490  -35.2800  -34.4790 C   0  0  0  0  0  0  0  0  0  0  0  0
    6.1760  -34.2860  -34.5230 C   0  0  0  0  0  0  0  0  0  0  0  0
   10.8940  -33.2080  -31.0870 C   0  0  0  0  0  0  0  0  0  0  0  0
   11.6340  -31.7720  -29.3520 O   0  0  0  0  0  0  0  0  0  0  0  0
    8.8410  -31.8910  -30.2180 O   0  0  0  0  0  0  0  0  0  0  0  0
    7.4040  -32.1830  -31.8380 C   0  0  0  0  0  0  0  0  0  0  0  0
    8.2950  -34.2920  -33.5840 C   0  0  0  0  0  0  0  0  0  0  0  0
    7.0800  -33.7710  -33.5050 C   0  0  0  0  0  0  0  0  0  0  0  0
   11.3640  -33.7830  -30.2590 C   0  0  1  0  0  0  0  0  0  0  0  0
    9.5150  -33.3100  -31.6970 C   0  0  0  0  0  0  0  0  0  0  0  0
   10.8800  -35.0440  -30.0110 F   0  0  0  0  0  0  0  0  0  0  0  0
   11.1170  -34.2630  -32.3300 C   0  0  0  0  0  0  0  0  0  0  0  0
    8.6010  -32.4600  -31.4230 C   0  0  0  0  0  0  0  0  0  0  0  0
   12.3970  -33.8710  -30.4770 F   0  0  0  0  0  0  0  0  0  0  0  0
   11.0010  -34.9790  -33.5940 O   0  0  0  0  0  0  0  0  0  0  0  0
    7.7290  -35.8010  -35.3420 C   0  0  0  0  0  0  0  0  0  0  0  0
   11.0830  -33.0230  -29.1450 C   0  0  0  0  0  0  0  0  0  0  0  0
    6.4670  -35.2630  -35.3950 C   0  0  0  0  0  0  0  0  0  0  0  0
    4.2050  -35.1030  -37.7640 F   0  0  0  0  0  0  0  0  0  0  0  0
  1  7  1  0
  1 26  1  0
  5  6  1  0
  5 20  1  0
  6 18  1  0
  7  3  1  1
  7  2  1  0
  8  4  1  0
  8 14  2  0
  9 15  2  0
 10 16  2  0
 11 17  1  0
 12 25  1  0
 14 21  1  0
 15 16  1  0
 15  6  1  0
 16  8  1  0
 17 19  1  1
 17 25  1  0
 18 21  2  0
 18 11  1  0
 21 13  1  0
 22 17  1  0
 23  5  2  0
 24  9  1  0
 26 24  2  0
 26 10  1  0
 27  7  1  0
M  END
$$$$

     RDKit          3D

 25 28  0  0  0  0  0  0  0  0999 V2000
    4.3500  -36.2700  -36.3860 C   0  0  0  0  0  0  0  0  0  0  0  0
   11.5160  -33.6200  -32.0720 C   0  0  0  0  0  0  0  0  0  0  0  0
    6.8550  -35.6390  -36.2910 C   0  0  1  0  0  0  0  0  0  0  0  0
    8.3660  -32.3820  -32.3470 C   0  0  1  0  0  0  0  0  0  0  0  0
    4.0140  -35.0600  -37.0530 O   0  0  0  0  0  0  0  0  0  0  0  0
    8.8680  -36.5700  -35.2380 N   0  0  0  0  0  0  0  0  0  0  0  0
   10.9890  -33.2270  -29.4300 N   0  0  0  0  0  0  0  0  0  0  0  0
    6.3260  -34.3350  -36.8610 C   0  0  0  0  0  0  0  0  0  0  0  0
    7.9730  -35.5840  -35.3330 C   0  0  0  0  0  0  0  0  0  0  0  0
    7.9770  -32.0910  -30.9020 C   0  0  0  0  0  0  0  0  0  0  0  0
    5.9170  -32.6370  -32.4270 C   0  0  0  0  0  0  0  0  0  0  0  0
    9.7910  -36.5480  -34.3040 C   0  0  0  0  0  0  0  0  0  0  0  0
    5.6370  -36.2110  -35.5990 C   0  0  0  0  0  0  0  0  0  0  0  0
    9.0350  -34.6060  -33.5440 C   0  0  0  0  0  0  0  0  0  0  0  0
    9.2180  -33.4880  -32.6400 C   0  0  2  0  0  0  0  0  0  0  0  0
   12.2540  -33.4430  -29.8320 C   0  0  0  0  0  0  0  0  0  0  0  0
   10.0400  -33.1970  -30.3880 C   0  0  0  0  0  0  0  0  0  0  0  0
   12.5770  -33.6090  -31.1260 C   0  0  0  0  0  0  0  0  0  0  0  0
    7.0410  -31.2300  -30.8640 N   0  0  0  0  0  0  0  0  0  0  0  0
    8.0330  -34.5300  -34.4520 N   0  0  0  0  0  0  0  0  0  0  0  0
    5.2100  -34.6400  -37.8750 C   0  0  0  0  0  0  0  0  0  0  0  0
   10.2770  -33.4320  -31.6610 C   0  0  0  0  0  0  0  0  0  0  0  0
    6.0330  -31.4740  -31.7010 C   0  0  0  0  0  0  0  0  0  0  0  0
    9.9440  -35.6000  -33.4970 N   0  0  0  0  0  0  0  0  0  0  0  0
    7.1120  -32.6550  -33.2410 C   0  0  0  0  0  0  0  0  0  0  0  0
  1 13  1  0
  2 22  2  0
  2 18  1  0
  3 13  1  0
  3  9  1  1
  4 15  1  0
  4 10  1  1
  5  1  1  0
  6 12  2  0
  8  3  1  0
  9  6  1  0
  9 20  2  0
 10 19  1  0
 11 23  1  0
 12 24  1  0
 14 24  2  0
 15 14  1  1
 15 22  1  0
 16  7  1  0
 17  7  2  0
 18 16  2  0
 20 14  1  0
 21  5  1  0
 21  8  1  0
 22 17  1  0
 23 19  1  0
 25 11  1  0
 25  4  1  0
M  END
$$$$

     RDKit          3D

 31 34  0  0  0  0  0  0  0  0999 V2000
    9.8430  -34.0710  -28.6370 C   0  0  0  0  0  0  0  0  0  0  0  0
    3.7700  -35.8510  -36.8250 O   0  0  0  0  0  0  0  0  0  0  0  0
    6.5920  -31.9740  -31.2900 C   0  0  0  0  0  0  0  0  0  0  0  0
    7.9810  -32.3330  -32.1730 C   0  0  1  0  0  0  0  0  0  0  0  0
   11.8770  -33.5300  -30.0360 C   0  0  0  0  0  0  0  0  0  0  0  0
    7.3100  -34.6590  -34.7310 C   0  0  0  0  0  0  0  0  0  0  0  0
    5.8160  -34.0110  -34.7960 C   0  0  1  0  0  0  0  0  0  0  0  0
    9.1520  -32.5710  -31.3110 C   0  0  0  0  0  0  0  0  0  0  0  0
   10.5210  -33.0540  -29.4420 C   0  0  2  0  0  0  0  0  0  0  0  0
    9.4600  -36.7360  -33.2210 C   0  0  0  0  0  0  0  0  0  0  0  0
    4.0470  -32.8910  -33.1630 C   0  0  0  0  0  0  0  0  0  0  0  0
   10.4290  -31.8390  -29.0940 C   0  0  0  0  0  0  0  0  0  0  0  0
    7.3420  -35.1420  -37.3750 C   0  0  0  0  0  0  0  0  0  0  0  0
    5.5940  -34.9520  -35.9790 C   0  0  2  0  0  0  0  0  0  0  0  0
    4.6900  -33.8460  -34.1350 C   0  0  1  0  0  0  0  0  0  0  0  0
    8.7200  -36.7630  -34.5330 C   0  0  0  0  0  0  0  0  0  0  0  0
    9.3210  -33.2860  -30.2930 O   0  0  0  0  0  0  0  0  0  0  0  0
    8.3300  -35.3210  -32.5570 C   0  0  0  0  0  0  0  0  0  0  0  0
    9.2140  -35.6670  -34.8530 C   0  0  0  0  0  0  0  0  0  0  0  0
    4.6030  -32.4990  -32.1880 C   0  0  0  0  0  0  0  0  0  0  0  0
   11.9810  -33.0100  -31.1750 C   0  0  0  0  0  0  0  0  0  0  0  0
    9.5690  -35.7730  -33.1700 C   0  0  2  0  0  0  0  0  0  0  0  0
    7.6030  -34.3270  -33.3710 C   0  0  1  0  0  0  0  0  0  0  0  0
    5.6740  -31.7750  -31.9690 C   0  0  0  0  0  0  0  0  0  0  0  0
    4.3860  -35.0430  -35.7740 C   0  0  0  0  0  0  0  0  0  0  0  0
    2.2110  -35.9740  -36.9510 C   0  0  0  0  0  0  0  0  0  0  0  0
    3.6920  -34.5670  -35.0520 N   0  0  0  0  0  0  0  0  0  0  0  0
    6.8080  -34.7390  -35.6810 C   0  0  1  0  0  0  0  0  0  0  0  0
   12.2460  -32.5880  -31.2960 C   0  0  0  0  0  0  0  0  0  0  0  0
    7.2320  -32.9970  -33.0960 O   0  0  0  0  0  0  0  0  0  0  0  0
   11.2670  -32.8960  -32.4570 C   0  0  0  0  0  0  0  0  0  0  0  0
  2 25  1  0
  4  8  1  1
  4  3  1  0
  5  9  1  0
  6 23  1  0
  7 15  1  1
  8 17  1  0
  9 12  1  1
  9  1  1  0
 10 22  1  0
 11 20  1  0
 28 13  1  6
 14 25  1  1
 14 28  1  0
 14  7  1  0
 15 11  1  6
 16 10  1  0
 17  9  1  0
 19 16  1  0
 19 22  1  0
 20 24  1  0
 21  5  1  0
 22 18  1  1
 23 30  1  0
 23 18  1  6
 24  3  1  0
 25 27  2  0
 26  2  1  0
 27 15  1  0
 28  7  1  0
 28  6  1  0
 29 21  2  0
 30  4  1  0
 31 21  1  0
M  END
$$$$

     RDKit          3D

 18 21  0  0  0  0  0  0  0  0999 V2000
    9.0190  -35.7010  -33.7750 C   0  0  0  0  0  0  0  0  0  0  0  0
    9.4500  -34.9300  -32.8860 C   0  0  2  0  0  0  0  0  0  0  0  0
    4.5270  -34.3930  -35.5140 C   0  0  0  0  0  0  0  0  0  0  0  0
   11.9280  -34.8380  -33.8870 C   0  0  0  0  0  0  0  0  0  0  0  0
    4.7430  -33.4800  -34.7160 C   0  0  0  0  0  0  0  0  0  0  0  0
    7.8510  -32.6130  -32.2190 C   0  0  0  0  0  0  0  0  0  0  0  0
    9.8480  -33.6000  -31.2640 C   0  0  0  0  0  0  0  0  0  0  0  0
    8.5090  -34.5360  -33.2130 C   0  0  1  0  0  0  0  0  0  0  0  0
    7.0600  -34.2610  -33.8560 C   0  0  0  0  0  0  0  0  0  0  0  0
   11.0620  -33.9560  -31.6760 C   0  0  2  0  0  0  0  0  0  0  0  0
   10.8420  -34.6040  -32.7530 C   0  0  1  0  0  0  0  0  0  0  0  0
    6.6760  -35.2220  -34.9020 C   0  0  0  0  0  0  0  0  0  0  0  0
    6.0490  -32.2140  -33.0290 C   0  0  0  0  0  0  0  0  0  0  0  0
    6.9430  -32.3920  -32.4270 C   0  0  0  0  0  0  0  0  0  0  0  0
    5.9460  -33.2440  -33.8170 C   0  0  0  0  0  0  0  0  0  0  0  0
    8.8220  -33.6200  -32.2860 C   0  0  1  0  0  0  0  0  0  0  0  0
   12.2000  -33.9140  -30.5970 O   0  0  0  0  0  0  0  0  0  0  0  0
    5.5660  -35.2440  -35.5500 C   0  0  0  0  0  0  0  0  0  0  0  0
  2  1  1  6
  2 11  1  0
  3  5  1  0
  5 15  2  0
  8  1  1  6
  8  2  1  0
  8 16  1  0
  9 15  1  0
  9  8  1  0
 10  7  1  0
 10 17  1  1
 11  4  1  6
 11 10  1  0
 12  9  2  0
 13 14  1  0
 14  6  1  0
 15 13  1  0
 16  6  1  1
 16  7  1  0
 18  3  2  0
 18 12  1  0
M  END
$$$$

     RDKit          3D

 35 39  0  0  0  0  0  0  0  0999 V2000
   15.1080  -33.5050  -33.0880 C   0  0  0  0  0  0  0  0  0  0  0  0
    7.0550  -35.4220  -35.0510 C   0  0  0  0  0  0  0  0  0  0  0  0
    7.7230  -33.9910  -33.3130 C   0  0  2  0  0  0  0  0  0  0  0  0
    8.4600  -33.4210  -32.2880 N   0  0  0  0  0  0  0  0  0  0  0  0
    9.8390  -33.6650  -32.1230 C   0  0  2  0  0  0  0  0  0  0  0  0
    5.8400  -34.4940  -38.1940 C   0  0  0  0  0  0  0  0  0  0  0  0
   12.9470  -34.0520  -33.8570 C   0  0  0  0  0  0  0  0  0  0  0  0
   11.1670  -31.9640  -27.9950 C   0  0  0  0  0  0  0  0  0  0  0  0
    4.3350  -33.5900  -34.1640 N   0  0  0  0  0  0  0  0  0  0  0  0
   10.5880  -33.8000  -33.3590 C   0  0  1  0  0  0  0  0  0  0  0  0
   11.1900  -33.3270  -29.8880 C   0  0  0  0  0  0  0  0  0  0  0  0
   12.2090  -32.2070  -27.1040 C   0  0  0  0  0  0  0  0  0  0  0  0
   13.2600  -33.6690  -28.8370 C   0  0  0  0  0  0  0  0  0  0  0  0
    6.5100  -33.4030  -33.3630 N   0  0  0  0  0  0  0  0  0  0  0  0
    5.8600  -34.8060  -35.0270 C   0  0  0  0  0  0  0  0  0  0  0  0
   12.7700  -35.3320  -34.2310 O   0  0  0  0  0  0  0  0  0  0  0  0
    4.9910  -35.6110  -38.0220 C   0  0  0  0  0  0  0  0  0  0  0  0
   11.8680  -33.0860  -33.3580 C   0  0  0  0  0  0  0  0  0  0  0  0
    8.0630  -35.0190  -34.1020 C   0  0  0  0  0  0  0  0  0  0  0  0
   13.2750  -32.9680  -27.5630 C   0  0  0  0  0  0  0  0  0  0  0  0
    6.4200  -32.2470  -32.5140 C   0  0  0  0  0  0  0  0  0  0  0  0
    4.7080  -35.1170  -35.7440 N   0  0  0  0  0  0  0  0  0  0  0  0
    9.2610  -35.5850  -34.0760 C   0  0  0  0  0  0  0  0  0  0  0  0
    3.7380  -34.3810  -35.1300 N   0  0  0  0  0  0  0  0  0  0  0  0
   10.7100  -32.3050  -29.1200 C   0  0  0  0  0  0  0  0  0  0  0  0
   10.2600  -34.6970  -34.4450 O   0  0  0  0  0  0  0  0  0  0  0  0
    7.8210  -32.0810  -31.9820 C   0  0  0  0  0  0  0  0  0  0  0  0
   12.4060  -33.8740  -29.7260 C   0  0  0  0  0  0  0  0  0  0  0  0
   14.1140  -33.4830  -34.0220 O   0  0  0  0  0  0  0  0  0  0  0  0
    5.5650  -33.8680  -34.1140 C   0  0  0  0  0  0  0  0  0  0  0  0
    9.6050  -31.8000  -29.7310 F   0  0  0  0  0  0  0  0  0  0  0  0
    6.0700  -33.8140  -39.4420 C   0  0  0  0  0  0  0  0  0  0  0  0
    4.9130  -36.1330  -36.7820 C   0  0  0  0  0  0  0  0  0  0  0  0
   12.1740  -31.7600  -25.9460 O   0  0  0  0  0  0  0  0  0  0  0  0
   10.3710  -33.9440  -30.9170 O   0  0  0  0  0  0  0  0  0  0  0  0
  2 15  1  0
  2 19  2  0
  3 19  1  0
  3  4  1  1
  4  5  1  0
  4 27  1  0
  5 35  1  1
  6 17  2  3
  7 18  1  0
  8 12  1  0
  9 30  1  0
 10 18  1  1
 10  5  1  0
 11 35  1  0
 11 28  1  0
 11 25  1  0
 12 34  2  0
 13 20  1  0
 14  3  1  0
 14 21  1  0
 15 30  2  0
 16  7  2  0
 17 33  1  0
 19 23  1  0
 20 12  1  0
 21 27  1  0
 22 24  1  0
 22 15  1  0
 24  9  2  0
 25  8  2  0
 26 23  1  0
 26 10  1  0
 28 13  2  0
 29  7  1  0
 29  1  1  0
 30 14  1  0
 31 25  1  0
 32  6  1  0
 33 22  1  0
M  END
$$$$

     RDKit          3D

 25 31  0  0  0  0  0  0  0  0999 V2000
    7.5370  -34.4290  -34.2810 C   0  0  1  0  0  0  0  0  0  0  0  0
    6.1820  -34.2710  -34.4320 C   0  0  0  0  0  0  0  0  0  0  0  0
    8.0380  -32.9300  -32.4020 C   0  0  0  0  0  0  0  0  0  0  0  0
    3.5880  -34.2180  -35.7580 C   0  0  0  0  0  0  0  0  0  0  0  0
    5.1390  -33.4070  -33.9340 C   0  0  0  0  0  0  0  0  0  0  0  0
   10.4000  -34.4830  -32.3430 C   0  0  2  0  0  0  0  0  0  0  0  0
    4.5350  -34.9250  -36.3030 C   0  0  0  0  0  0  0  0  0  0  0  0
   11.2760  -34.1150  -32.9140 C   0  0  2  0  0  0  0  0  0  0  0  0
    7.0140  -35.5190  -35.7850 C   0  0  0  0  0  0  0  0  0  0  0  0
   11.7350  -33.6780  -30.6920 S   0  0  0  0  0  0  0  0  0  0  0  0
   10.3770  -34.4210  -33.3430 C   0  0  1  0  0  0  0  0  0  0  0  0
    9.3660  -32.5020  -31.2830 C   0  0  0  0  0  0  0  0  0  0  0  0
    6.7610  -32.5510  -32.3230 C   0  0  1  0  0  0  0  0  0  0  0  0
    9.2390  -32.0070  -30.3870 C   0  0  0  0  0  0  0  0  0  0  0  0
    3.8990  -33.5060  -34.4090 C   0  0  0  0  0  0  0  0  0  0  0  0
    5.2640  -32.6740  -32.7470 C   0  0  0  0  0  0  0  0  0  0  0  0
   11.0740  -35.2240  -33.5640 C   0  0  0  0  0  0  0  0  0  0  0  0
    2.8300  -32.9740  -33.7680 O   0  0  0  0  0  0  0  0  0  0  0  0
   10.7940  -33.6120  -31.6990 C   0  0  2  0  0  0  0  0  0  0  0  0
    6.5880  -31.6470  -31.0980 C   0  0  0  0  0  0  0  0  0  0  0  0
   10.8800  -33.4290  -32.4130 C   0  0  0  0  0  0  0  0  0  0  0  0
   10.6680  -36.1120  -34.1410 C   0  0  0  0  0  0  0  0  0  0  0  0
    7.8320  -31.3310  -30.6110 C   0  0  0  0  0  0  0  0  0  0  0  0
    8.7990  -34.1630  -33.7340 C   0  0  0  0  0  0  0  0  0  0  0  0
    5.7470  -35.2010  -35.6140 C   0  0  0  0  0  0  0  0  0  0  0  0
  1  9  1  6
  1 24  1  0
  2  1  1  0
  2  5  2  0
  3 13  1  0
  3 12  2  0
  4 15  2  0
  5 16  1  0
  6 19  1  1
  7  4  1  0
  7 25  2  0
  8 21  1  1
  8  6  1  0
  9 25  1  0
 11  8  1  0
 11  6  1  0
 12 14  1  0
 13 20  1  1
 15  5  1  0
 15 18  1  0
 16 13  1  0
 11 17  1  6
 17  8  1  0
 19 12  1  0
 19 10  1  1
 20 23  1  0
 21 19  1  0
 22 17  1  0
 23 14  1  0
 24  3  1  0
 25  2  1  0
M  END
$$$$

     RDKit          3D

 18 21  0  0  0  0  0  0  0  0999 V2000
    9.5880  -33.2200  -31.9490 C   0  0  0  0  0  0  0  0  0  0  0  0
   10.8270  -33.8200  -31.6250 C   0  0  1  0  0  0  0  0  0  0  0  0
    7.0110  -34.4030  -34.0490 C   0  0  2  0  0  0  0  0  0  0  0  0
    7.5720  -32.6860  -32.2820 C   0  0  0  0  0  0  0  0  0  0  0  0
    7.0920  -35.0370  -34.9510 C   0  0  0  0  0  0  0  0  0  0  0  0
    5.9930  -35.6360  -35.5210 C   0  0  0  0  0  0  0  0  0  0  0  0
    6.4600  -32.3370  -33.1460 C   0  0  2  0  0  0  0  0  0  0  0  0
    6.3530  -33.8820  -34.1810 C   0  0  1  0  0  0  0  0  0  0  0  0
   11.8480  -33.6780  -32.5060 C   0  0  0  0  0  0  0  0  0  0  0  0
    9.1610  -33.9950  -32.8890 C   0  0  2  0  0  0  0  0  0  0  0  0
    5.1970  -33.6080  -34.1490 C   0  0  0  0  0  0  0  0  0  0  0  0
   10.1100  -33.9670  -33.6470 C   0  0  0  0  0  0  0  0  0  0  0  0
    5.3520  -32.5010  -32.4200 C   0  0  0  0  0  0  0  0  0  0  0  0
   11.1760  -34.0650  -30.2970 C   0  0  0  0  0  0  0  0  0  0  0  0
    4.6830  -34.9920  -35.2170 C   0  0  0  0  0  0  0  0  0  0  0  0
    7.6930  -33.8410  -33.2240 C   0  0  1  0  0  0  0  0  0  0  0  0
    7.2580  -32.9860  -33.5170 C   0  0  1  0  0  0  0  0  0  0  0  0
   11.4140  -34.0690  -33.5040 C   0  0  0  0  0  0  0  0  0  0  0  0
  1  2  1  0
  2 14  1  1
  3  5  1  6
  3 16  1  0
  6 15  1  0
  6  5  1  0
  7 13  1  1
  7  4  1  0
  8 11  1  1
  8  3  1  0
  8 17  1  0
  9  2  1  0
 10 12  1  6
 10  1  1  0
 12 18  1  0
 15 11  1  0
 16 10  1  6
 17 16  1  0
 17  7  1  0
 17  4  1  6
 18  9  1  0
M  END
$$$$

     RDKit          3D

 28 32  0  0  0  0  0  0  0  0999 V2000
    4.7520  -33.3690  -33.5900 C   0  0  0  0  0  0  0  0  0  0  0  0
    9.3470  -35.7280  -34.4670 C   0  0  0  0  0  0  0  0  0  0  0  0
    9.3160  -33.9590  -32.9370 C   0  0  0  0  0  0  0  0  0  0  0  0
    5.8940  -32.1350  -32.1800 C   0  0  0  0  0  0  0  0  0  0  0  0
   11.6010  -32.1760  -28.4740 C   0  0  1  0  0  0  0  0  0  0  0  0
    9.7020  -32.2590  -31.7910 C   0  0  0  0  0  0  0  0  0  0  0  0
    5.9310  -34.7120  -35.2060 O   0  0  0  0  0  0  0  0  0  0  0  0
    9.9140  -34.7230  -33.5940 C   0  0  0  0  0  0  0  0  0  0  0  0
    5.9600  -33.0560  -33.1020 C   0  0  0  0  0  0  0  0  0  0  0  0
    3.8790  -32.5330  -33.0940 N   0  0  0  0  0  0  0  0  0  0  0  0
    4.6310  -34.3700  -34.7530 C   0  0  0  0  0  0  0  0  0  0  0  0
    8.0440  -35.5180  -34.7930 C   0  0  0  0  0  0  0  0  0  0  0  0
   11.9140  -33.8970  -29.7050 C   0  0  0  0  0  0  0  0  0  0  0  0
   10.2720  -36.6980  -34.7340 C   0  0  0  0  0  0  0  0  0  0  0  0
   11.2910  -31.2490  -29.2390 F   0  0  0  0  0  0  0  0  0  0  0  0
    8.2450  -33.4590  -32.6610 C   0  0  0  0  0  0  0  0  0  0  0  0
    4.6390  -31.7730  -32.1700 N   0  0  0  0  0  0  0  0  0  0  0  0
   11.3400  -35.9510  -34.4380 C   0  0  0  0  0  0  0  0  0  0  0  0
   12.5430  -32.9590  -28.8080 O   0  0  0  0  0  0  0  0  0  0  0  0
   10.3900  -33.7720  -29.9970 C   0  0  0  0  0  0  0  0  0  0  0  0
    3.6350  -34.7640  -35.2090 O   0  0  0  0  0  0  0  0  0  0  0  0
    7.1860  -33.8090  -33.4470 C   0  0  0  0  0  0  0  0  0  0  0  0
    8.2980  -32.3530  -31.8160 C   0  0  0  0  0  0  0  0  0  0  0  0
    6.9820  -31.7790  -31.5030 C   0  0  0  0  0  0  0  0  0  0  0  0
   11.2060  -32.2370  -27.3310 F   0  0  0  0  0  0  0  0  0  0  0  0
   10.4830  -33.2170  -31.3140 O   0  0  0  0  0  0  0  0  0  0  0  0
    6.9610  -34.8220  -34.3690 C   0  0  0  0  0  0  0  0  0  0  0  0
   11.2010  -34.8470  -33.4240 C   0  0  0  0  0  0  0  0  0  0  0  0
  1  9  1  0
  1 10  2  0
  2  8  2  0
  3 16  2  0
  4 17  2  0
  4 24  1  0
  5 25  1  1
  6 26  1  0
  7 11  1  0
  7 27  1  0
  8 28  1  0
  8  3  1  0
  9  4  1  0
 10 17  1  0
 11  1  1  0
 12  2  1  0
 12 27  2  0
 13 19  1  0
 14  2  1  0
 14 18  1  0
 15  5  1  0
 16 23  1  0
 18 28  1  0
 19  5  1  0
 20 13  1  0
 21 11  2  0
 22  9  2  0
 22 16  1  0
 23  6  1  0
 23 24  2  0
 26 20  1  0
 27 22  1  0
M  END
$$$$

     RDKit          3D

 31 34  0  0  0  0  0  0  0  0999 V2000
    4.5110  -34.4100  -35.0600 C   0  0  0  0  0  0  0  0  0  0  0  0
   -0.4350  -35.9680  -38.6340 C   0  0  0  0  0  0  0  0  0  0  0  0
    8.6530  -33.8690  -32.9380 C   0  0  0  0  0  0  0  0  0  0  0  0
    2.0820  -33.6440  -36.9700 C   0  0  0  0  0  0  0  0  0  0  0  0
    1.6930  -34.6220  -39.5960 O   0  0  0  0  0  0  0  0  0  0  0  0
   10.4260  -31.8540  -28.8670 C   0  0  0  0  0  0  0  0  0  0  0  0
    4.2250  -35.5980  -36.2810 C   0  0  0  0  0  0  0  0  0  0  0  0
   11.7600  -35.3000  -33.7510 C   0  0  0  0  0  0  0  0  0  0  0  0
    1.4690  -34.1840  -38.1210 C   0  0  1  0  0  0  0  0  0  0  0  0
    7.1380  -35.0640  -34.6260 C   0  0  0  0  0  0  0  0  0  0  0  0
   11.0830  -33.4230  -32.1460 C   0  0  1  0  0  0  0  0  0  0  0  0
    5.9650  -34.3680  -34.6040 C   0  0  0  0  0  0  0  0  0  0  0  0
    7.4040  -33.2010  -32.9980 C   0  0  0  0  0  0  0  0  0  0  0  0
   10.4100  -35.6330  -33.9210 C   0  0  0  0  0  0  0  0  0  0  0  0
    8.3420  -34.7930  -34.0610 C   0  0  0  0  0  0  0  0  0  0  0  0
    9.6420  -35.3700  -34.4300 C   0  0  0  0  0  0  0  0  0  0  0  0
    3.2410  -33.7030  -34.9720 C   0  0  0  0  0  0  0  0  0  0  0  0
   11.2860  -33.1000  -30.7540 C   0  0  0  0  0  0  0  0  0  0  0  0
    9.8750  -35.3960  -31.2950 C   0  0  0  0  0  0  0  0  0  0  0  0
   12.2740  -34.2030  -32.7230 C   0  0  0  0  0  0  0  0  0  0  0  0
   12.4850  -33.3810  -30.0000 C   0  0  0  0  0  0  0  0  0  0  0  0
    6.1370  -33.3160  -33.5280 C   0  0  0  0  0  0  0  0  0  0  0  0
    2.7010  -35.4190  -36.5620 C   0  0  0  0  0  0  0  0  0  0  0  0
    2.2410  -34.3700  -35.8970 N   0  0  0  0  0  0  0  0  0  0  0  0
   13.5210  -34.2870  -30.4680 F   0  0  0  0  0  0  0  0  0  0  0  0
    9.8540  -34.1960  -32.1900 C   0  0  1  0  0  0  0  0  0  0  0  0
    0.4560  -35.1130  -37.6470 C   0  0  0  0  0  0  0  0  0  0  0  0
    7.1450  -35.8720  -35.6360 O   0  0  0  0  0  0  0  0  0  0  0  0
   12.5080  -32.9330  -28.7620 C   0  0  0  0  0  0  0  0  0  0  0  0
   11.5760  -32.2040  -28.1720 C   0  0  0  0  0  0  0  0  0  0  0  0
   10.2570  -32.3170  -30.1650 C   0  0  0  0  0  0  0  0  0  0  0  0
  1 17  2  0
  1 12  1  0
  2 27  1  0
  3 26  1  0
  4 24  1  0
  6 30  2  0
  7  1  1  0
  8 20  1  0
  9  5  1  6
  9 27  1  0
  9  4  1  0
 10 12  1  0
 10 15  2  0
 11 18  1  1
 12 22  2  0
 13  3  2  0
 14  8  1  0
 15  3  1  0
 16 15  1  0
 16 14  1  0
 18 31  2  0
 18 21  1  0
 20 11  1  0
 21 29  2  0
 22 13  1  0
 23  7  2  0
 23 24  1  0
 24 17  1  0
 25 21  1  0
 26 11  1  0
 26 19  1  1
 28 10  1  0
 29 30  1  0
 31  6  1  0
M  END
$$$$

     RDKit          3D

 14 15  0  0  0  0  0  0  0  0999 V2000
    8.4850  -33.9760  -33.1720 N   0  0  0  0  0  0  0  0  0  0  0  0
    6.3250  -33.4320  -33.5650 C   0  0  0  0  0  0  0  0  0  0  0  0
    9.6520  -33.3040  -32.5630 C   0  0  2  0  0  0  0  0  0  0  0  0
   10.0460  -33.6340  -30.3740 F   0  0  0  0  0  0  0  0  0  0  0  0
    8.4260  -35.1200  -33.9020 C   0  0  0  0  0  0  0  0  0  0  0  0
    7.4300  -33.3100  -32.9390 C   0  0  0  0  0  0  0  0  0  0  0  0
   10.4170  -35.2290  -31.8640 F   0  0  0  0  0  0  0  0  0  0  0  0
   11.6730  -33.4160  -31.8040 F   0  0  0  0  0  0  0  0  0  0  0  0
    4.7530  -35.5340  -36.1820 N   0  0  0  0  0  0  0  0  0  0  0  0
    4.9000  -34.5470  -35.1840 C   0  0  0  0  0  0  0  0  0  0  0  0
   10.5110  -33.9350  -31.5510 C   0  0  1  0  0  0  0  0  0  0  0  0
    6.2960  -34.6110  -34.5260 C   0  0  0  0  0  0  0  0  0  0  0  0
    7.3170  -35.4130  -34.6230 C   0  0  0  0  0  0  0  0  0  0  0  0
    8.2170  -32.3750  -31.7620 S   0  0  0  0  0  0  0  0  0  0  0  0
  1  6  1  0
  1  3  1  0
  2  6  2  0
  3 14  1  1
  3 11  1  0
  5  1  1  0
  6 14  1  0
 11  7  1  6
  8 11  1  0
  9 10  1  0
 10 12  1  0
 11  4  1  0
 12  2  1  0
 13 12  2  0
 13  5  1  0
M  END
$$$$

     RDKit          3D

 28 32  0  0  0  0  0  0  0  0999 V2000
   11.3900  -32.5810  -31.0740 O   0  0  0  0  0  0  0  0  0  0  0  0
    8.7690  -36.6470  -35.2150 C   0  0  0  0  0  0  0  0  0  0  0  0
   11.1560  -33.0920  -29.7580 C   0  0  0  0  0  0  0  0  0  0  0  0
    5.8810  -33.1560  -33.3280 C   0  0  0  0  0  0  0  0  0  0  0  0
    5.0890  -31.9720  -31.2270 C   0  0  0  0  0  0  0  0  0  0  0  0
    6.3600  -31.6960  -30.8900 O   0  0  0  0  0  0  0  0  0  0  0  0
   10.6080  -31.2320  -28.3950 O   0  0  0  0  0  0  0  0  0  0  0  0
   12.6630  -31.9590  -28.3100 O   0  0  0  0  0  0  0  0  0  0  0  0
    8.2540  -35.4670  -34.7100 C   0  0  0  0  0  0  0  0  0  0  0  0
   10.3680  -35.1570  -33.4810 C   0  0  0  0  0  0  0  0  0  0  0  0
    5.5580  -33.5220  -34.7050 C   0  0  0  0  0  0  0  0  0  0  0  0
   10.6440  -33.3810  -31.9650 C   0  0  0  0  0  0  0  0  0  0  0  0
    7.1790  -33.1860  -32.8280 C   0  0  0  0  0  0  0  0  0  0  0  0
    9.2860  -33.0350  -32.0580 C   0  0  0  0  0  0  0  0  0  0  0  0
   11.2760  -34.3590  -32.6820 C   0  0  0  0  0  0  0  0  0  0  0  0
    4.9290  -32.5300  -32.5620 C   0  0  0  0  0  0  0  0  0  0  0  0
    7.3200  -32.2260  -31.5860 C   0  0  0  0  0  0  0  0  0  0  0  0
    9.0360  -34.7800  -33.6950 C   0  0  0  0  0  0  0  0  0  0  0  0
    8.4240  -33.6780  -32.9510 C   0  0  0  0  0  0  0  0  0  0  0  0
   10.8260  -36.3810  -34.0190 C   0  0  0  0  0  0  0  0  0  0  0  0
    2.6820  -32.0170  -32.2710 O   0  0  0  0  0  0  0  0  0  0  0  0
    8.6140  -32.1590  -31.2600 N   0  0  0  0  0  0  0  0  0  0  0  0
   11.5420  -32.0060  -28.7180 C   0  0  0  0  0  0  0  0  0  0  0  0
    3.2880  -32.8900  -34.2610 N   0  0  0  0  0  0  0  0  0  0  0  0
    4.2290  -33.3780  -35.1620 C   0  0  0  0  0  0  0  0  0  0  0  0
    3.6720  -32.4650  -32.9850 C   0  0  0  0  0  0  0  0  0  0  0  0
    9.9910  -37.1660  -34.7710 C   0  0  0  0  0  0  0  0  0  0  0  0
    3.8680  -33.6450  -36.3370 O   0  0  0  0  0  0  0  0  0  0  0  0
  1  3  1  0
  2 27  2  0
  2  9  1  0
  3 23  1  0
  4 16  2  0
  5  6  1  0
  9 18  2  0
 10 15  1  0
 11  4  1  0
 12  1  1  0
 13  4  1  0
 13 17  1  0
 14 12  1  0
 14 22  1  0
 15 12  2  0
 16  5  1  0
 17 22  2  0
 17  6  1  0
 18 10  1  0
 18 19  1  0
 19 13  1  0
 19 14  2  0
 20 10  2  0
 23  7  2  0
 23  8  1  0
 24 26  1  0
 25 11  1  0
 25 24  1  0
 26 16  1  0
 26 21  2  0
 27 20  1  0
 28 25  2  0
M  END
$$$$

     RDKit          3D

 16 17  0  0  0  0  0  0  0  0999 V2000
    9.9690  -33.7380  -31.2480 O   0  0  0  0  0  0  0  0  0  0  0  0
    7.3970  -34.0180  -33.7000 C   0  0  0  0  0  0  0  0  0  0  0  0
    9.0860  -35.4490  -34.9940 N   0  0  0  0  0  0  0  0  0  0  0  0
    9.7920  -36.8350  -33.1570 C   0  0  0  0  0  0  0  0  0  0  0  0
    6.0680  -33.5650  -33.7660 C   0  0  0  0  0  0  0  0  0  0  0  0
    7.8110  -35.0820  -34.6860 C   0  0  0  0  0  0  0  0  0  0  0  0
    9.5250  -33.8980  -32.4020 C   0  0  0  0  0  0  0  0  0  0  0  0
    7.7950  -32.5190  -31.8080 N   0  0  0  0  0  0  0  0  0  0  0  0
    5.6560  -32.5610  -32.8880 C   0  0  0  0  0  0  0  0  0  0  0  0
    6.1220  -31.1220  -31.1000 N   0  0  0  0  0  0  0  0  0  0  0  0
    6.5530  -32.1390  -31.9400 C   0  0  0  0  0  0  0  0  0  0  0  0
   10.5660  -34.3860  -33.4250 C   0  0  0  0  0  0  0  0  0  0  0  0
    5.2810  -33.9210  -34.7510 O   0  0  0  0  0  0  0  0  0  0  0  0
    6.9650  -35.6770  -35.3760 O   0  0  0  0  0  0  0  0  0  0  0  0
    8.2510  -33.4700  -32.7110 C   0  0  0  0  0  0  0  0  0  0  0  0
   10.2400  -35.6920  -34.0130 C   0  0  2  0  0  0  0  0  0  0  0  0
  2 15  2  0
  3  6  1  0
  3 16  1  0
  5  2  1  0
  5  9  2  0
  6  2  1  0
  7  1  2  0
  9 11  1  0
 11  8  2  0
 11 10  1  0
 12  7  1  0
 13  5  1  0
 14  6  2  0
 15  7  1  0
 15  8  1  0
 16 12  1  0
 16  4  1  1
M  END
$$$$

     RDKit          3D

 23 25  0  0  0  0  0  0  0  0999 V2000
    7.3310  -33.4400  -33.0690 C   0  0  0  0  0  0  0  0  0  0  0  0
    4.3310  -34.2440  -38.0170 C   0  0  0  0  0  0  0  0  0  0  0  0
    8.0670  -32.8490  -32.1090 C   0  0  0  0  0  0  0  0  0  0  0  0
   11.4180  -33.5310  -30.9810 O   0  0  0  0  0  0  0  0  0  0  0  0
    2.7090  -34.3530  -36.2140 O   0  0  0  0  0  0  0  0  0  0  0  0
    4.8130  -35.2550  -35.9230 N   0  0  0  0  0  0  0  0  0  0  0  0
    5.6430  -32.0150  -32.1020 C   0  0  0  0  0  0  0  0  0  0  0  0
    9.5660  -36.1970  -34.5900 C   0  0  0  0  0  0  0  0  0  0  0  0
    9.2660  -34.9540  -33.9500 C   0  0  0  0  0  0  0  0  0  0  0  0
    9.3570  -33.2410  -31.9210 C   0  0  0  0  0  0  0  0  0  0  0  0
   10.4960  -34.6230  -33.3390 C   0  0  0  0  0  0  0  0  0  0  0  0
    9.9720  -32.2570  -29.7370 C   0  0  0  0  0  0  0  0  0  0  0  0
    6.8970  -34.9170  -34.9530 C   0  0  0  0  0  0  0  0  0  0  0  0
    7.1970  -31.6810  -31.1610 S   0  0  0  0  0  0  0  0  0  0  0  0
    5.9800  -33.1070  -33.1240 C   0  0  0  0  0  0  0  0  0  0  0  0
    7.7810  -34.4310  -33.9460 C   0  0  0  0  0  0  0  0  0  0  0  0
   10.8980  -36.3860  -34.4450 C   0  0  0  0  0  0  0  0  0  0  0  0
   10.3180  -33.0230  -30.9180 C   0  0  0  0  0  0  0  0  0  0  0  0
   11.4820  -35.3610  -33.6320 C   0  0  0  0  0  0  0  0  0  0  0  0
    9.8330  -34.0770  -32.8680 C   0  0  0  0  0  0  0  0  0  0  0  0
    3.8220  -34.6310  -36.6150 C   0  0  0  0  0  0  0  0  0  0  0  0
    5.6070  -34.6170  -34.9580 C   0  0  0  0  0  0  0  0  0  0  0  0
    5.1340  -33.5850  -34.0780 C   0  0  0  0  0  0  0  0  0  0  0  0
  1  3  2  0
  2 21  1  0
  3 10  1  0
  3 14  1  0
  4 18  2  0
  6 22  1  0
  7 14  1  0
  8 17  1  0
  8  9  2  0
  9 11  1  0
 10 18  1  0
 11 20  2  0
 13 16  2  0
 15  1  1  0
 15  7  2  0
 16  1  1  0
 17 19  2  0
 18 12  1  0
 19 11  1  0
 20 10  2  0
 21  5  2  0
 21  6  1  0
 22 13  1  0
 22 23  2  0
 23 15  1  0
M  END
$$$$

     RDKit          3D

 26 30  0  0  0  0  0  0  0  0999 V2000
    4.4360  -34.4320  -38.1420 C   0  0  0  0  0  0  0  0  0  0  0  0
   12.4820  -32.9450  -29.8480 C   0  0  0  0  0  0  0  0  0  0  0  0
    3.1910  -35.8730  -36.2850 C   0  0  0  0  0  0  0  0  0  0  0  0
    9.9720  -32.8980  -30.9890 C   0  0  0  0  0  0  0  0  0  0  0  0
    5.0670  -34.7480  -34.6290 C   0  0  0  0  0  0  0  0  0  0  0  0
   11.3960  -32.4710  -29.1230 C   0  0  0  0  0  0  0  0  0  0  0  0
    5.6890  -35.3080  -35.9430 N   0  0  0  0  0  0  0  0  0  0  0  0
   10.8550  -33.9550  -33.0720 C   0  0  1  0  0  0  0  0  0  0  0  0
    2.9910  -34.3800  -38.8630 C   0  0  0  0  0  0  0  0  0  0  0  0
    9.4640  -34.1920  -33.3360 C   0  0  2  0  0  0  0  0  0  0  0  0
    8.3730  -33.4970  -32.6820 C   0  0  0  0  0  0  0  0  0  0  0  0
    4.4950  -35.5630  -36.8090 C   0  0  2  0  0  0  0  0  0  0  0  0
   10.2080  -32.5860  -29.6620 C   0  0  0  0  0  0  0  0  0  0  0  0
    6.5890  -34.8020  -34.2750 C   0  0  2  0  0  0  0  0  0  0  0  0
   11.7580  -35.0110  -33.3130 F   0  0  0  0  0  0  0  0  0  0  0  0
    2.2200  -35.9550  -37.0710 C   0  0  0  0  0  0  0  0  0  0  0  0
    1.8690  -35.2690  -38.2470 N   0  0  0  0  0  0  0  0  0  0  0  0
    7.2230  -34.2070  -33.9290 C   0  0  0  0  0  0  0  0  0  0  0  0
    7.2170  -35.4070  -35.9770 C   0  0  1  0  0  0  0  0  0  0  0  0
    8.7940  -32.8080  -31.4590 C   0  0  0  0  0  0  0  0  0  0  0  0
    9.1860  -35.1900  -34.1700 C   0  0  0  0  0  0  0  0  0  0  0  0
    8.3900  -35.5460  -35.1810 C   0  0  0  0  0  0  0  0  0  0  0  0
   12.3000  -33.3880  -31.1180 C   0  0  0  0  0  0  0  0  0  0  0  0
    9.7460  -36.1380  -33.7340 O   0  0  0  0  0  0  0  0  0  0  0  0
   10.9860  -33.0260  -33.6960 F   0  0  0  0  0  0  0  0  0  0  0  0
   10.9190  -33.4210  -31.6540 C   0  0  0  0  0  0  0  0  0  0  0  0
  2  6  2  0
  4 13  2  0
  7  5  1  0
  8 26  1  0
  9 17  1  0
  9  1  1  0
 10 21  1  1
 10  8  1  0
 10 11  1  0
 11 20  2  0
 12  1  1  0
 12  3  1  0
 12  7  1  1
 13  6  1  0
 14  5  1  6
 14 18  1  0
  8 15  1  1
 16  3  1  0
 17 16  2  0
 18 11  1  0
 19  7  1  0
 19 22  1  1
 19 14  1  0
 20  4  1  0
 21 24  2  0
 22 21  1  0
 23  2  1  0
 25  8  1  0
 26 23  2  0
 26  4  1  0
M  END
$$$$

     RDKit          3D

 24 30  0  0  0  0  0  0  0  0999 V2000
    9.3750  -33.9350  -32.9600 C   0  0  2  0  0  0  0  0  0  0  0  0
    7.9350  -33.2670  -32.7260 C   0  0  0  0  0  0  0  0  0  0  0  0
    5.2130  -34.0520  -34.4880 N   0  0  0  0  0  0  0  0  0  0  0  0
    9.6120  -35.0420  -33.1510 C   0  0  1  0  0  0  0  0  0  0  0  0
    5.8560  -31.7880  -32.1100 C   0  0  0  0  0  0  0  0  0  0  0  0
    9.7760  -37.0370  -33.9520 C   0  0  0  0  0  0  0  0  0  0  0  0
    6.2550  -35.5110  -36.0430 O   0  0  0  0  0  0  0  0  0  0  0  0
    3.8320  -32.3040  -33.1820 O   0  0  0  0  0  0  0  0  0  0  0  0
    9.5640  -35.4880  -35.0260 C   0  0  2  0  0  0  0  0  0  0  0  0
    6.2720  -34.9710  -34.9920 C   0  0  0  0  0  0  0  0  0  0  0  0
    5.0760  -32.4990  -32.9960 C   0  0  0  0  0  0  0  0  0  0  0  0
   10.4100  -36.2330  -33.2760 C   0  0  1  0  0  0  0  0  0  0  0  0
   10.5170  -35.2350  -34.5930 C   0  0  2  0  0  0  0  0  0  0  0  0
   11.4320  -34.5260  -31.9560 O   0  0  0  0  0  0  0  0  0  0  0  0
    8.4700  -35.4070  -34.2600 C   0  0  2  0  0  0  0  0  0  0  0  0
   10.3080  -33.0510  -31.1610 C   0  0  0  0  0  0  0  0  0  0  0  0
    7.1600  -32.0830  -31.9550 C   0  0  0  0  0  0  0  0  0  0  0  0
    9.8510  -32.8860  -30.9840 C   0  0  0  0  0  0  0  0  0  0  0  0
    5.6830  -33.3490  -33.6400 C   0  0  0  0  0  0  0  0  0  0  0  0
    6.9500  -33.6790  -33.4210 N   0  0  0  0  0  0  0  0  0  0  0  0
    7.9870  -31.4170  -31.0730 N   0  0  0  0  0  0  0  0  0  0  0  0
   10.4710  -33.8650  -32.0280 C   0  0  0  0  0  0  0  0  0  0  0  0
    7.3080  -34.8250  -34.3730 C   0  0  2  0  0  0  0  0  0  0  0  0
    8.8170  -36.2430  -34.9940 C   0  0  2  0  0  0  0  0  0  0  0  0
  1  2  1  0
  1 22  1  1
  2 17  2  0
  3 19  2  0
  4  1  1  1
  5 17  1  0
 12  6  1  6
  7 10  2  0
  8 11  2  0
  9 24  1  1
  9 13  1  0
  9 15  1  0
 10  3  1  0
 23 10  1  1
 11  5  1  0
 12  4  1  0
 13 12  1  1
 13  4  1  0
 15  4  1  0
 16 18  2  0
 17 21  1  0
 19 20  1  0
 19 11  1  0
 20  2  1  0
 22 14  2  0
 22 16  1  0
 15 23  1  6
 23 20  1  0
 24 15  1  0
 24  6  1  1
M  END
$$$$

     RDKit          3D

 37 40  0  0  0  0  0  0  0  0999 V2000
    9.0080  -37.2590  -34.4640 C   0  0  0  0  0  0  0  0  0  0  0  0
    8.5780  -34.0180  -32.5000 C   0  0  0  0  0  0  0  0  0  0  0  0
    2.5520  -34.3040  -38.7300 C   0  0  0  0  0  0  0  0  0  0  0  0
    3.7980  -33.3420  -33.1820 C   0  0  0  0  0  0  0  0  0  0  0  0
    4.9470  -32.4300  -32.6530 C   0  0  2  0  0  0  0  0  0  0  0  0
   13.1590  -33.6680  -30.1490 C   0  0  0  0  0  0  0  0  0  0  0  0
    6.8360  -31.9050  -31.6370 O   0  0  0  0  0  0  0  0  0  0  0  0
   11.6360  -35.3420  -33.9750 O   0  0  0  0  0  0  0  0  0  0  0  0
   10.9900  -33.9250  -31.5540 C   0  0  0  0  0  0  0  0  0  0  0  0
   11.3130  -35.0700  -31.1080 C   0  0  0  0  0  0  0  0  0  0  0  0
   12.6680  -33.0510  -27.8680 C   0  0  0  0  0  0  0  0  0  0  0  0
    8.5290  -35.9170  -34.0340 C   0  0  0  0  0  0  0  0  0  0  0  0
   13.6750  -32.9270  -27.4070 N   0  0  0  0  0  0  0  0  0  0  0  0
    6.7050  -34.3870  -34.1430 C   0  0  0  0  0  0  0  0  0  0  0  0
    3.6720  -34.2380  -40.9110 O   0  0  0  0  0  0  0  0  0  0  0  0
    6.3460  -32.6550  -32.5120 C   0  0  0  0  0  0  0  0  0  0  0  0
   11.0360  -35.8710  -32.9590 C   0  0  0  0  0  0  0  0  0  0  0  0
    3.6560  -34.1260  -39.4980 C   0  0  0  0  0  0  0  0  0  0  0  0
   10.2960  -33.5180  -31.0340 C   0  0  1  0  0  0  0  0  0  0  0  0
    2.3140  -33.8940  -34.8200 O   0  0  0  0  0  0  0  0  0  0  0  0
    3.3760  -33.7260  -34.4810 C   0  0  0  0  0  0  0  0  0  0  0  0
    2.7980  -34.0730  -37.4260 C   0  0  0  0  0  0  0  0  0  0  0  0
   11.1910  -33.2820  -29.5860 C   0  0  0  0  0  0  0  0  0  0  0  0
    4.2370  -31.6930  -31.5910 C   0  0  0  0  0  0  0  0  0  0  0  0
    4.5010  -33.8790  -35.3070 C   0  0  1  0  0  0  0  0  0  0  0  0
    4.8740  -33.7860  -38.9550 C   0  0  0  0  0  0  0  0  0  0  0  0
   11.4500  -33.2110  -32.7310 C   0  0  0  0  0  0  0  0  0  0  0  0
    8.7300  -32.6480  -31.5060 C   0  0  0  0  0  0  0  0  0  0  0  0
    5.6520  -34.1430  -34.9120 N   0  0  0  0  0  0  0  0  0  0  0  0
    5.1600  -33.7010  -37.6700 C   0  0  0  0  0  0  0  0  0  0  0  0
   11.5610  -32.6800  -27.1350 O   0  0  0  0  0  0  0  0  0  0  0  0
    9.6010  -35.1310  -33.1060 C   0  0  0  0  0  0  0  0  0  0  0  0
    4.0640  -33.8740  -36.8810 C   0  0  0  0  0  0  0  0  0  0  0  0
    7.2510  -33.6490  -33.0310 C   0  0  0  0  0  0  0  0  0  0  0  0
   11.9620  -34.1610  -33.8960 C   0  0  0  0  0  0  0  0  0  0  0  0
   12.3100  -33.2850  -29.2890 C   0  0  0  0  0  0  0  0  0  0  0  0
    7.3020  -35.6590  -34.5450 C   0  0  0  0  0  0  0  0  0  0  0  0
  1 12  1  0
  2 28  1  0
  3 22  2  0
  4  5  1  0
  5 16  1  0
  5 24  1  1
  6 36  1  0
  8 35  1  0
  8 17  1  0
  9 10  2  0
  9 19  1  0
 11 13  1  0
 11 31  2  0
 12 32  1  0
 14 34  2  0
 15 18  1  0
 16  7  2  0
 18 26  2  0
 18  3  1  0
 19 23  1  0
 20 21  2  0
 21  4  1  0
 22 33  1  0
 23 36  2  3
 25 33  1  6
 25 29  1  0
 25 21  1  0
 26 30  1  0
 27  9  1  0
 19 28  1  6
 29 14  1  0
 30 33  2  0
 32 17  1  0
 32  2  2  0
 34 16  1  0
 34  2  1  0
 35 27  1  0
 36 11  1  0
 37 14  1  0
 37 12  2  0
M  END
$$$$

     RDKit          3D

 32 37  0  0  0  0  0  0  0  0999 V2000
    9.2110  -34.4910  -32.7610 C   0  0  2  0  0  0  0  0  0  0  0  0
    7.6590  -32.3150  -31.9480 C   0  0  1  0  0  0  0  0  0  0  0  0
    1.4450  -35.0200  -36.3790 N   0  0  0  0  0  0  0  0  0  0  0  0
   10.4510  -34.9480  -33.6720 C   0  0  2  0  0  0  0  0  0  0  0  0
    6.7470  -33.9150  -33.5950 C   0  0  0  0  0  0  0  0  0  0  0  0
    5.6240  -34.0590  -34.4720 C   0  0  0  0  0  0  0  0  0  0  0  0
    5.3800  -31.6280  -31.5170 C   0  0  0  0  0  0  0  0  0  0  0  0
   11.6640  -33.2190  -32.1580 C   0  0  2  0  0  0  0  0  0  0  0  0
    6.9820  -35.4150  -35.8990 C   0  0  0  0  0  0  0  0  0  0  0  0
    8.6960  -32.3420  -31.1870 C   0  0  2  0  0  0  0  0  0  0  0  0
    5.7740  -34.7110  -35.6420 C   0  0  0  0  0  0  0  0  0  0  0  0
    4.0940  -32.6420  -32.9720 O   0  0  0  0  0  0  0  0  0  0  0  0
   12.4020  -32.0240  -30.2580 O   0  0  0  0  0  0  0  0  0  0  0  0
    9.8910  -32.2750  -29.2800 O   0  0  0  0  0  0  0  0  0  0  0  0
    8.0320  -35.3250  -34.9330 C   0  0  0  0  0  0  0  0  0  0  0  0
    6.5200  -32.9560  -32.6440 C   0  0  2  0  0  0  0  0  0  0  0  0
    4.8220  -34.7150  -36.6750 O   0  0  0  0  0  0  0  0  0  0  0  0
    8.0470  -34.4900  -33.8020 C   0  0  0  0  0  0  0  0  0  0  0  0
   12.3840  -33.2670  -31.0560 C   0  0  1  0  0  0  0  0  0  0  0  0
   10.0390  -34.0960  -31.7090 C   0  0  0  0  0  0  0  0  0  0  0  0
    5.3170  -32.4160  -32.4860 C   0  0  0  0  0  0  0  0  0  0  0  0
    7.3820  -31.5150  -30.8860 C   0  0  2  0  0  0  0  0  0  0  0  0
   10.5280  -36.1740  -33.4950 O   0  0  0  0  0  0  0  0  0  0  0  0
    9.6690  -32.2950  -30.5120 C   0  0  0  0  0  0  0  0  0  0  0  0
   10.6440  -33.0350  -31.7750 C   0  0  1  0  0  0  0  0  0  0  0  0
    2.4800  -35.7120  -37.1120 C   0  0  0  0  0  0  0  0  0  0  0  0
    3.7430  -33.6990  -36.5980 C   0  0  0  0  0  0  0  0  0  0  0  0
    6.2620  -31.5610  -30.8140 C   0  0  0  0  0  0  0  0  0  0  0  0
    2.4450  -34.2060  -37.0270 C   0  0  2  0  0  0  0  0  0  0  0  0
   12.7190  -34.7170  -33.6070 O   0  0  0  0  0  0  0  0  0  0  0  0
   11.6830  -34.2530  -33.2110 C   0  0  0  0  0  0  0  0  0  0  0  0
   12.2200  -34.2110  -29.9270 C   0  0  0  0  0  0  0  0  0  0  0  0
  1 20  1  0
  2 10  1  0
  2 22  1  0
  4 23  1  1
  4 31  1  0
  4  1  1  0
  5 16  1  0
  6  5  2  0
  7 28  1  0
  8 25  1  0
  8 19  1  0
  9 11  2  0
  9 15  1  0
 10 22  1  0
 10 24  1  6
 11  6  1  0
 12 21  1  0
 15 18  2  0
 16 21  1  6
  2 16  1  1
 17 27  1  0
 17 11  1  0
 18  5  1  0
  1 18  1  6
 19 13  1  0
 19 32  1  1
 21  7  2  0
 22 28  1  1
 24 14  2  0
 25 20  1  0
 25 24  1  1
 26 29  1  0
 26  3  1  0
 29 27  1  1
 29  3  1  0
 30 31  2  0
  8 31  1  1
M  END
$$$$

     RDKit          3D

 35 40  0  0  0  0  0  0  0  0999 V2000
    4.6610  -33.4740  -33.9920 C   0  0  0  0  0  0  0  0  0  0  0  0
    9.8570  -35.8780  -33.5050 C   0  0  1  0  0  0  0  0  0  0  0  0
    6.0620  -33.9120  -33.9260 N   0  0  0  0  0  0  0  0  0  0  0  0
    7.7420  -35.7430  -34.1870 C   0  0  0  0  0  0  0  0  0  0  0  0
   11.5450  -34.1240  -29.7480 C   0  0  0  0  0  0  0  0  0  0  0  0
   12.2120  -31.9220  -28.1760 C   0  0  0  0  0  0  0  0  0  0  0  0
    2.1690  -34.4910  -36.7430 C   0  0  0  0  0  0  0  0  0  0  0  0
   12.5480  -32.6690  -31.7940 C   0  0  0  0  0  0  0  0  0  0  0  0
   13.4190  -35.7280  -33.7340 C   0  0  0  0  0  0  0  0  0  0  0  0
   11.0960  -33.9620  -32.8900 O   0  0  0  0  0  0  0  0  0  0  0  0
    4.9750  -30.9690  -31.4070 O   0  0  0  0  0  0  0  0  0  0  0  0
   11.7110  -32.7570  -30.4340 C   0  0  1  0  0  0  0  0  0  0  0  0
    3.2430  -33.7370  -37.4450 C   0  0  0  0  0  0  0  0  0  0  0  0
    6.5620  -35.0430  -34.7170 C   0  0  0  0  0  0  0  0  0  0  0  0
   10.7460  -31.7530  -27.9210 C   0  0  0  0  0  0  0  0  0  0  0  0
   10.2690  -32.2160  -30.3540 C   0  0  0  0  0  0  0  0  0  0  0  0
    8.6590  -35.0230  -33.2930 C   0  0  2  0  0  0  0  0  0  0  0  0
    6.5240  -32.2390  -32.4190 O   0  0  0  0  0  0  0  0  0  0  0  0
   11.0760  -35.2080  -33.1430 C   0  0  2  0  0  0  0  0  0  0  0  0
   11.4490  -37.4050  -33.7160 C   0  0  0  0  0  0  0  0  0  0  0  0
    6.9180  -33.2740  -33.1010 C   0  0  0  0  0  0  0  0  0  0  0  0
   12.0200  -36.1560  -33.5460 C   0  0  0  0  0  0  0  0  0  0  0  0
    3.8180  -33.9570  -35.1000 N   0  0  0  0  0  0  0  0  0  0  0  0
   13.0360  -31.9510  -27.3120 O   0  0  0  0  0  0  0  0  0  0  0  0
    3.1650  -35.1740  -35.7870 C   0  0  0  0  0  0  0  0  0  0  0  0
   13.7020  -34.3490  -33.1880 C   0  0  0  0  0  0  0  0  0  0  0  0
   12.5890  -32.0800  -29.6620 C   0  0  0  0  0  0  0  0  0  0  0  0
    8.2590  -33.7320  -32.8910 C   0  0  0  0  0  0  0  0  0  0  0  0
   10.0820  -31.2470  -29.2430 C   0  0  0  0  0  0  0  0  0  0  0  0
   12.6610  -33.5700  -32.5440 C   0  0  0  0  0  0  0  0  0  0  0  0
    6.1050  -35.4070  -35.6720 O   0  0  0  0  0  0  0  0  0  0  0  0
    5.2820  -31.8700  -32.2590 C   0  0  0  0  0  0  0  0  0  0  0  0
    4.3310  -32.4930  -33.1230 C   0  0  0  0  0  0  0  0  0  0  0  0
   10.0270  -37.1690  -33.7320 C   0  0  0  0  0  0  0  0  0  0  0  0
    4.0580  -33.1320  -36.3500 C   0  0  0  0  0  0  0  0  0  0  0  0
  1  3  1  0
  1 33  2  0
  2 34  1  1
  2 17  1  0
  2 19  1  0
  3 21  1  0
  6 15  1  0
  6 24  2  0
  7 25  1  0
  8 12  1  0
  9 26  1  0
 10 30  1  0
 12 16  1  0
 12  5  1  1
 12 27  1  0
 13  7  1  0
 13 35  1  0
 14  4  1  0
 14  3  1  0
 16 29  1  0
 17  4  1  6
 17 28  1  0
 18 32  1  0
 19 10  1  6
 20 22  1  0
 21 28  2  0
 21 18  1  0
 22  9  1  0
 22 19  1  0
 23  1  1  0
 25 23  1  0
 26 30  1  0
 27  6  1  0
 29 15  1  0
 30  8  1  0
 31 14  2  0
 32 11  2  0
 33 32  1  0
 34 20  1  0
 35 23  1  0
M  END
$$$$

     RDKit          3D

 20 23  0  0  0  0  0  0  0  0999 V2000
    4.4010  -33.4040  -33.4690 C   0  0  0  0  0  0  0  0  0  0  0  0
    5.7130  -33.6180  -33.7930 C   0  0  0  0  0  0  0  0  0  0  0  0
    9.9600  -34.5630  -33.6460 C   0  0  2  0  0  0  0  0  0  0  0  0
    9.0490  -33.2410  -31.8660 C   0  0  0  0  0  0  0  0  0  0  0  0
    8.1100  -33.4770  -32.6370 C   0  0  2  0  0  0  0  0  0  0  0  0
   11.3200  -33.8590  -31.7810 C   0  0  0  0  0  0  0  0  0  0  0  0
    9.0140  -32.5800  -30.7960 C   0  0  0  0  0  0  0  0  0  0  0  0
   11.1810  -32.7020  -29.7250 C   0  0  0  0  0  0  0  0  0  0  0  0
   11.1020  -34.6300  -34.3370 O   0  0  0  0  0  0  0  0  0  0  0  0
   11.8280  -33.4540  -30.6220 C   0  0  0  0  0  0  0  0  0  0  0  0
    6.2840  -32.6140  -32.7540 C   0  0  0  0  0  0  0  0  0  0  0  0
    3.6050  -32.5350  -33.8430 O   0  0  0  0  0  0  0  0  0  0  0  0
    9.9050  -32.2800  -29.7610 C   0  0  0  0  0  0  0  0  0  0  0  0
    6.5330  -34.4580  -34.1380 C   0  0  0  0  0  0  0  0  0  0  0  0
    8.6790  -35.1090  -33.9770 C   0  0  2  0  0  0  0  0  0  0  0  0
    7.7600  -34.1330  -33.6140 C   0  0  2  0  0  0  0  0  0  0  0  0
   10.1880  -33.8290  -32.3700 C   0  0  0  0  0  0  0  0  0  0  0  0
    2.7100  -32.8690  -34.9490 C   0  0  0  0  0  0  0  0  0  0  0  0
    9.4620  -35.8690  -33.2940 C   0  0  0  0  0  0  0  0  0  0  0  0
    7.4490  -32.5960  -32.4090 C   0  0  0  0  0  0  0  0  0  0  0  0
  2  1  1  0
  2 11  2  0
  3  9  1  6
  3 19  1  0
  3 17  1  0
  4  7  1  0
  5 20  1  6
  5  4  1  0
  6 10  2  0
  7 13  1  0
 10  8  1  0
 11 20  1  0
 12  1  1  0
 13  8  2  0
 14  2  1  0
 15  3  1  0
 15 16  1  0
 15 19  1  1
 16 14  1  1
 16  5  1  0
 17  4  2  0
 17  6  1  0
 18 12  1  0
M  END
$$$$

     RDKit          3D

 27 31  0  0  0  0  0  0  0  0999 V2000
    3.0360  -33.4200  -35.2810 C   0  0  0  0  0  0  0  0  0  0  0  0
   11.2860  -33.5410  -30.4160 C   0  0  0  0  0  0  0  0  0  0  0  0
    3.4640  -34.2000  -36.4040 C   0  0  0  0  0  0  0  0  0  0  0  0
    8.2720  -34.4510  -33.3720 C   0  0  0  0  0  0  0  0  0  0  0  0
    7.3550  -34.4370  -34.0880 C   0  0  0  0  0  0  0  0  0  0  0  0
   13.1810  -32.4730  -27.9950 C   0  0  0  0  0  0  0  0  0  0  0  0
    8.9770  -32.0750  -30.7430 C   0  0  0  0  0  0  0  0  0  0  0  0
   10.3180  -33.6360  -31.4700 C   0  0  0  0  0  0  0  0  0  0  0  0
    4.6260  -34.8670  -36.4640 C   0  0  0  0  0  0  0  0  0  0  0  0
    7.0230  -32.8380  -32.6640 C   0  0  0  0  0  0  0  0  0  0  0  0
   10.6230  -31.2360  -27.6020 C   0  0  0  0  0  0  0  0  0  0  0  0
    9.7950  -31.9010  -29.7230 C   0  0  0  0  0  0  0  0  0  0  0  0
    6.7700  -34.9630  -35.0860 N   0  0  0  0  0  0  0  0  0  0  0  0
    9.6820  -34.8680  -33.5300 N   0  0  0  0  0  0  0  0  0  0  0  0
    8.1160  -33.3540  -32.5150 C   0  0  0  0  0  0  0  0  0  0  0  0
   10.9570  -32.5590  -29.4120 C   0  0  0  0  0  0  0  0  0  0  0  0
   10.7640  -34.6540  -32.5090 C   0  0  0  0  0  0  0  0  0  0  0  0
    5.2410  -33.6840  -34.4040 C   0  0  0  0  0  0  0  0  0  0  0  0
   11.6440  -32.3370  -28.1710 C   0  0  1  0  0  0  0  0  0  0  0  0
    9.0270  -36.5720  -35.3320 C   0  0  0  0  0  0  0  0  0  0  0  0
   13.0830  -32.2350  -26.5600 O   0  0  0  0  0  0  0  0  0  0  0  0
   11.3660  -36.1800  -34.6230 C   0  0  0  0  0  0  0  0  0  0  0  0
    9.9130  -36.1700  -34.1130 C   0  0  1  0  0  0  0  0  0  0  0  0
    6.4230  -33.5730  -33.6670 C   0  0  0  0  0  0  0  0  0  0  0  0
    5.5920  -34.5620  -35.4080 C   0  0  0  0  0  0  0  0  0  0  0  0
    4.0820  -33.0910  -34.2620 C   0  0  0  0  0  0  0  0  0  0  0  0
    9.2410  -33.0800  -31.6580 C   0  0  0  0  0  0  0  0  0  0  0  0
  1 26  2  0
  2 16  1  0
  3  1  1  0
  4 15  2  0
  5 24  1  0
  5  4  1  0
  6 21  1  0
  7 12  1  0
  8  2  2  0
  9  3  2  0
  9 25  1  0
 10 15  1  0
 12 16  2  0
 13  5  2  0
 14  4  1  0
 14 17  1  0
 15 27  1  0
 16 19  1  0
 17  8  1  0
 18 26  1  0
 18 24  1  0
 19  6  1  0
 19 11  1  6
 23 20  1  6
 22 23  1  0
 23 14  1  0
 24 10  2  0
 25 13  1  0
 25 18  2  0
 27  8  1  0
 27  7  2  0
M  END
$$$$

     RDKit          3D

 15 17  0  0  0  0  0  0  0  0999 V2000
    8.3940  -32.9620  -31.9060 C   0  0  0  0  0  0  0  0  0  0  0  0
    8.6680  -34.7680  -33.2710 C   0  0  0  0  0  0  0  0  0  0  0  0
    8.2950  -35.6390  -34.0960 C   0  0  0  0  0  0  0  0  0  0  0  0
    6.4530  -34.7000  -34.5070 C   0  0  0  0  0  0  0  0  0  0  0  0
    9.6620  -33.5180  -31.6350 C   0  0  0  0  0  0  0  0  0  0  0  0
    6.7000  -33.7570  -33.5880 C   0  0  0  0  0  0  0  0  0  0  0  0
    7.9580  -31.9870  -31.3430 N   0  0  0  0  0  0  0  0  0  0  0  0
    9.8710  -34.7210  -32.4860 C   0  0  0  0  0  0  0  0  0  0  0  0
    8.8710  -36.7690  -34.3490 C   0  0  0  0  0  0  0  0  0  0  0  0
    6.9910  -31.7280  -31.9630 C   0  0  0  0  0  0  0  0  0  0  0  0
   10.5030  -33.0230  -30.9240 O   0  0  0  0  0  0  0  0  0  0  0  0
    5.8510  -31.9870  -32.5590 C   0  0  0  0  0  0  0  0  0  0  0  0
    5.5950  -32.9620  -33.5320 C   0  0  0  0  0  0  0  0  0  0  0  0
    7.1280  -35.6390  -34.6660 C   0  0  0  0  0  0  0  0  0  0  0  0
    7.7690  -33.7250  -32.9200 C   0  0  0  0  0  0  0  0  0  0  0  0
  1 15  1  0
  1  5  1  0
  1  7  1  0
  2 15  1  0
  2  8  1  0
  3  2  2  0
  4  6  1  0
  5 11  2  0
  6 13  1  0
  6 15  2  0
  8  5  1  0
  9  3  1  0
 10  7  1  0
 12 10  1  0
 13 12  1  0
 14  4  2  0
 14  3  1  0
M  END
$$$$

     RDKit          3D

 30 34  0  0  0  0  0  0  0  0999 V2000
    8.5960  -32.3870  -30.5640 O   0  0  0  0  0  0  0  0  0  0  0  0
   11.3740  -32.9670  -30.3870 C   0  0  2  0  0  0  0  0  0  0  0  0
    4.0230  -35.4100  -36.4330 C   0  0  0  0  0  0  0  0  0  0  0  0
   10.4310  -35.6910  -34.5200 C   0  0  0  0  0  0  0  0  0  0  0  0
    4.5200  -35.2360  -35.0450 O   0  0  0  0  0  0  0  0  0  0  0  0
    7.9180  -34.5580  -33.6300 C   0  0  1  0  0  0  0  0  0  0  0  0
    9.0490  -35.7360  -33.7240 C   0  0  2  0  0  0  0  0  0  0  0  0
   13.1610  -33.1970  -28.8940 C   0  0  0  0  0  0  0  0  0  0  0  0
    4.1480  -33.0670  -37.3300 C   0  0  0  0  0  0  0  0  0  0  0  0
   11.1150  -31.9110  -29.6100 C   0  0  0  0  0  0  0  0  0  0  0  0
   11.3070  -34.9590  -33.7660 C   0  0  0  0  0  0  0  0  0  0  0  0
    6.5610  -32.3560  -32.9990 C   0  0  0  0  0  0  0  0  0  0  0  0
    6.6640  -36.6190  -35.1540 C   0  0  0  0  0  0  0  0  0  0  0  0
    5.8970  -35.3060  -34.9530 N   0  0  0  0  0  0  0  0  0  0  0  0
    5.0080  -34.0630  -38.2930 C   0  0  0  0  0  0  0  0  0  0  0  0
    4.1390  -34.2130  -37.2710 C   0  0  0  0  0  0  0  0  0  0  0  0
    8.0520  -31.7920  -31.4740 C   0  0  0  0  0  0  0  0  0  0  0  0
    6.8090  -34.5200  -33.9330 C   0  0  0  0  0  0  0  0  0  0  0  0
   12.5610  -33.6170  -30.1710 C   0  0  0  0  0  0  0  0  0  0  0  0
    6.3990  -33.9510  -33.4480 C   0  0  0  0  0  0  0  0  0  0  0  0
    8.7990  -33.8490  -33.0000 C   0  0  1  0  0  0  0  0  0  0  0  0
   12.6010  -32.6600  -27.8140 C   0  0  0  0  0  0  0  0  0  0  0  0
   10.3380  -33.3740  -32.6560 C   0  0  1  0  0  0  0  0  0  0  0  0
   11.2820  -32.3430  -27.9540 C   0  0  0  0  0  0  0  0  0  0  0  0
    9.6220  -36.2430  -32.4880 C   0  0  0  0  0  0  0  0  0  0  0  0
   10.7920  -33.5250  -31.5370 C   0  0  1  0  0  0  0  0  0  0  0  0
    8.1670  -32.3230  -32.9200 C   0  0  1  0  0  0  0  0  0  0  0  0
    8.3380  -36.4380  -34.7900 C   0  0  0  0  0  0  0  0  0  0  0  0
   11.2620  -33.9090  -32.8750 C   0  0  1  0  0  0  0  0  0  0  0  0
    7.7660  -30.7520  -31.4670 O   0  0  0  0  0  0  0  0  0  0  0  0
  2 19  1  6
  2 10  1  0
  3  5  1  0
  4 11  1  0
  4  7  1  0
  5 14  1  0
  6 21  1  0
  7  6  1  0
  7 25  1  1
  8 22  1  0
  9 16  2  0
 10 24  1  0
 29 11  1  1
 12 27  1  0
 13 14  1  0
 13 28  1  0
 14 18  1  0
 15 16  1  0
 16  3  1  0
 17 30  2  0
 17  1  1  0
  6 18  1  1
 18 20  1  0
 19  8  1  0
 20 12  1  0
 21 27  1  6
 21 23  1  0
 23 26  1  0
 24 22  1  0
 26  2  1  6
 27 17  1  1
 28  7  1  0
 23 29  1  6
 29 26  1  0
M  END
$$$$

     RDKit          3D

 39 45  0  0  0  0  0  0  0  0999 V2000
   10.7920  -33.8460  -31.9410 N   0  0  0  0  0  0  0  0  0  0  0  0
    5.8340  -34.2270  -34.5600 C   0  0  0  0  0  0  0  0  0  0  0  0
    2.3360  -33.6650  -37.4260 C   0  0  2  0  0  0  0  0  0  0  0  0
    2.5030  -36.1300  -37.3610 C   0  0  0  0  0  0  0  0  0  0  0  0
    7.5620  -35.4630  -34.8290 C   0  0  0  0  0  0  0  0  0  0  0  0
    3.2310  -33.9740  -34.8010 O   0  0  0  0  0  0  0  0  0  0  0  0
   11.4590  -35.5030  -33.6370 C   0  0  0  0  0  0  0  0  0  0  0  0
   14.3200  -32.9670  -26.1850 N   0  0  0  0  0  0  0  0  0  0  0  0
    5.4250  -33.1250  -33.9100 C   0  0  1  0  0  0  0  0  0  0  0  0
    0.4600  -34.4910  -39.1700 C   0  0  0  0  0  0  0  0  0  0  0  0
    9.7050  -36.5700  -34.8710 C   0  0  0  0  0  0  0  0  0  0  0  0
    9.6780  -33.2570  -31.0730 C   0  0  0  0  0  0  0  0  0  0  0  0
   10.4250  -34.6720  -33.0050 C   0  0  0  0  0  0  0  0  0  0  0  0
    7.8590  -33.8980  -33.2350 C   0  0  0  0  0  0  0  0  0  0  0  0
   12.0870  -33.3380  -30.2140 C   0  0  0  0  0  0  0  0  0  0  0  0
    6.2360  -31.9530  -31.9750 C   0  0  0  0  0  0  0  0  0  0  0  0
    3.7870  -34.6760  -35.7990 C   0  0  2  0  0  0  0  0  0  0  0  0
    4.6400  -32.7780  -33.2290 O   0  0  0  0  0  0  0  0  0  0  0  0
   14.7850  -34.0170  -26.0950 O   0  0  0  0  0  0  0  0  0  0  0  0
    7.1190  -34.3730  -34.2670 C   0  0  2  0  0  0  0  0  0  0  0  0
    4.7810  -31.5410  -31.2440 C   0  0  0  0  0  0  0  0  0  0  0  0
    5.8730  -33.0770  -32.5800 C   0  0  1  0  0  0  0  0  0  0  0  0
    5.2620  -34.9010  -35.4820 C   0  0  0  0  0  0  0  0  0  0  0  0
   13.2190  -32.7930  -26.9980 C   0  0  0  0  0  0  0  0  0  0  0  0
   14.6790  -32.0390  -25.4240 O   0  0  0  0  0  0  0  0  0  0  0  0
    6.0040  -35.5660  -36.1890 N   0  0  0  0  0  0  0  0  0  0  0  0
   12.1850  -32.1620  -26.5650 O   0  0  0  0  0  0  0  0  0  0  0  0
   12.0870  -32.9980  -29.0510 N   0  0  0  0  0  0  0  0  0  0  0  0
    8.8800  -35.6440  -34.4330 C   0  0  0  0  0  0  0  0  0  0  0  0
    3.9350  -33.8430  -37.0950 C   0  0  0  0  0  0  0  0  0  0  0  0
   13.2360  -33.3200  -28.3200 C   0  0  0  0  0  0  0  0  0  0  0  0
    7.1620  -35.9200  -35.8040 C   0  0  0  0  0  0  0  0  0  0  0  0
    1.7920  -34.8310  -37.3720 N   0  0  0  0  0  0  0  0  0  0  0  0
   11.0320  -36.4440  -34.5420 C   0  0  0  0  0  0  0  0  0  0  0  0
   12.1380  -33.6660  -31.4780 C   0  0  0  0  0  0  0  0  0  0  0  0
    3.1560  -36.0650  -35.9870 C   0  0  0  0  0  0  0  0  0  0  0  0
    8.3720  -33.2340  -32.2670 O   0  0  0  0  0  0  0  0  0  0  0  0
    1.8720  -34.1250  -38.8300 C   0  0  2  0  0  0  0  0  0  0  0  0
    9.3310  -34.7480  -33.4830 C   0  0  0  0  0  0  0  0  0  0  0  0
  1 35  1  0
  1 12  1  0
 20  2  1  1
  3 33  1  0
  3 30  1  6
  4 36  1  0
  5 29  2  0
  7 13  2  0
  8 19  1  0
  8 25  2  0
  9  2  1  1
  9 18  1  0
  9 22  1  0
 11 34  2  0
 11 29  1  0
 13  1  1  0
 14 37  1  0
 15 28  1  0
 16 21  1  0
 17 23  1  0
 17  6  1  1
 18 22  1  0
 20  5  1  0
 20 14  1  0
 22 16  1  6
 23  2  2  0
 24 27  2  0
 24  8  1  0
 26 32  2  0
 26 23  1  0
 28 31  1  0
 29 39  1  0
 30 17  1  0
 31 24  1  0
 32  5  1  0
 33  4  1  0
 34  7  1  0
 35 15  1  0
 36 17  1  0
 37 12  1  0
 38 10  1  1
 38  3  1  0
 38 33  1  0
 39 14  2  0
 39 13  1  0
M  CHG  2   8   1  19  -1
M  END
$$$$

     RDKit          3D

 18 19  0  0  0  0  0  0  0  0999 V2000
   10.2090  -33.3690  -30.1350 O   0  0  0  0  0  0  0  0  0  0  0  0
    5.1690  -34.2150  -34.5070 N   0  0  0  0  0  0  0  0  0  0  0  0
   11.2320  -32.7710  -30.2420 C   0  0  0  0  0  0  0  0  0  0  0  0
    9.7990  -33.6610  -31.5070 C   0  0  0  0  0  0  0  0  0  0  0  0
    8.0020  -33.2830  -32.7570 C   0  0  0  0  0  0  0  0  0  0  0  0
    5.0450  -35.0230  -35.3080 N   0  0  0  0  0  0  0  0  0  0  0  0
    5.9610  -33.1950  -33.4780 C   0  0  0  0  0  0  0  0  0  0  0  0
    9.5100  -34.8690  -33.3630 C   0  0  0  0  0  0  0  0  0  0  0  0
    3.7500  -35.3300  -35.9690 C   0  0  0  0  0  0  0  0  0  0  0  0
    8.3580  -34.1870  -33.6370 C   0  0  0  0  0  0  0  0  0  0  0  0
    5.9610  -35.7280  -35.8810 N   0  0  0  0  0  0  0  0  0  0  0  0
   10.1390  -34.5130  -32.3400 C   0  0  0  0  0  0  0  0  0  0  0  0
    7.4090  -34.6130  -34.6540 C   0  0  0  0  0  0  0  0  0  0  0  0
    6.2730  -34.3070  -34.3430 C   0  0  0  0  0  0  0  0  0  0  0  0
    6.8540  -32.6930  -32.8410 N   0  0  0  0  0  0  0  0  0  0  0  0
    8.0450  -35.3390  -35.3730 C   0  0  0  0  0  0  0  0  0  0  0  0
   12.2320  -33.3170  -30.9820 C   0  0  0  0  0  0  0  0  0  0  0  0
    8.8150  -33.0410  -31.7120 C   0  0  0  0  0  0  0  0  0  0  0  0
  2 14  1  0
  3  1  1  0
  4  1  1  0
  5 18  2  0
  6  2  1  0
  7 15  2  0
  8 12  1  0
  9  6  1  0
 10  8  2  0
 10  5  1  0
 11  6  1  0
 12  4  2  0
 13 14  2  0
 13 10  1  0
 14  7  1  0
 15  5  1  0
 16 13  1  0
 17  3  2  0
 18  4  1  0
M  END
$$$$

     RDKit          3D

 33 37  0  0  0  0  0  0  0  0999 V2000
   10.3410  -36.4120  -35.0860 C   0  0  1  0  0  0  0  0  0  0  0  0
    3.8320  -32.5050  -32.9830 N   0  0  0  0  0  0  0  0  0  0  0  0
    9.5470  -33.0000  -31.3790 C   0  0  0  0  0  0  0  0  0  0  0  0
   10.6250  -35.3590  -34.3920 C   0  0  0  0  0  0  0  0  0  0  0  0
   12.9400  -34.3720  -30.1070 O   0  0  0  0  0  0  0  0  0  0  0  0
    9.1670  -31.8000  -29.5590 N   0  0  0  0  0  0  0  0  0  0  0  0
   -0.4520  -30.9160  -32.2410 C   0  0  0  0  0  0  0  0  0  0  0  0
    8.2600  -31.7910  -30.3160 C   0  0  0  0  0  0  0  0  0  0  0  0
    5.9400  -35.4150  -36.4150 C   0  0  0  0  0  0  0  0  0  0  0  0
    7.5970  -32.7360  -32.5680 C   0  0  1  0  0  0  0  0  0  0  0  0
    5.2690  -34.2070  -34.2660 C   0  0  0  0  0  0  0  0  0  0  0  0
    7.1170  -35.5250  -36.3120 C   0  0  0  0  0  0  0  0  0  0  0  0
    3.9760  -31.7030  -32.0100 C   0  0  0  0  0  0  0  0  0  0  0  0
   10.3100  -33.7700  -32.2020 C   0  0  0  0  0  0  0  0  0  0  0  0
    8.2790  -35.7810  -35.6010 C   0  0  0  0  0  0  0  0  0  0  0  0
    9.4750  -36.9080  -33.1540 C   0  0  0  0  0  0  0  0  0  0  0  0
    6.1260  -32.5430  -32.4540 C   0  0  0  0  0  0  0  0  0  0  0  0
    2.5890  -32.4330  -33.5650 C   0  0  0  0  0  0  0  0  0  0  0  0
   10.0680  -32.6030  -30.2120 C   0  0  1  0  0  0  0  0  0  0  0  0
   11.2220  -33.0230  -29.6800 C   0  0  0  0  0  0  0  0  0  0  0  0
    5.1380  -33.2140  -33.2710 C   0  0  0  0  0  0  0  0  0  0  0  0
    8.3200  -32.4860  -31.4750 C   0  0  0  0  0  0  0  0  0  0  0  0
    5.5650  -31.5940  -31.6030 C   0  0  0  0  0  0  0  0  0  0  0  0
    9.7490  -36.6260  -34.0280 C   0  0  0  0  0  0  0  0  0  0  0  0
    1.8810  -31.6960  -32.5860 C   0  0  0  0  0  0  0  0  0  0  0  0
    7.7710  -33.7390  -33.4020 O   0  0  0  0  0  0  0  0  0  0  0  0
    0.5470  -31.4180  -32.4720 C   0  0  0  0  0  0  0  0  0  0  0  0
   11.7370  -34.0520  -31.9150 C   0  0  0  0  0  0  0  0  0  0  0  0
    2.6760  -31.1950  -31.5690 C   0  0  0  0  0  0  0  0  0  0  0  0
   11.7080  -32.5630  -28.6140 O   0  0  0  0  0  0  0  0  0  0  0  0
   11.8980  -33.9380  -30.6160 C   0  0  0  0  0  0  0  0  0  0  0  0
    6.0350  -34.1550  -35.2990 C   0  0  0  0  0  0  0  0  0  0  0  0
    9.1570  -35.8360  -35.8560 O   0  0  0  0  0  0  0  0  0  0  0  0
  1 33  1  6
  1  4  1  0
  1 24  1  0
  2 13  1  0
  4 24  1  0
  8  6  2  0
  9 12  1  0
  9 32  1  0
 10 26  1  1
 10 17  1  0
 10 22  1  0
 11 21  1  0
 12 15  2  3
 13 23  2  0
 13 29  1  0
 14 28  1  0
 14  3  1  0
 17 23  1  0
 18  2  1  0
 18 25  1  0
 19  3  1  0
 19 20  1  0
 19  6  1  1
 20 30  2  0
 21  2  1  0
 21 17  2  0
 22  3  2  0
 22  8  1  0
 24 16  2  0
 25 27  1  0
 25 29  1  0
 27  7  3  0
 28 31  1  0
 31  5  2  0
 31 20  1  0
 32 11  2  3
 33 15  1  0
M  END
$$$$

     RDKit          3D

 24 29  0  0  0  0  0  0  0  0999 V2000
    6.8210  -32.8810  -33.2170 C   0  0  0  0  0  0  0  0  0  0  0  0
    4.7480  -34.7140  -34.9880 C   0  0  0  0  0  0  0  0  0  0  0  0
    4.5110  -31.8520  -31.9350 C   0  0  0  0  0  0  0  0  0  0  0  0
    5.6330  -32.7690  -33.8090 O   0  0  0  0  0  0  0  0  0  0  0  0
   11.9400  -33.3140  -29.6550 C   0  0  0  0  0  0  0  0  0  0  0  0
   10.9790  -32.5430  -28.7350 C   0  0  0  0  0  0  0  0  0  0  0  0
    6.7820  -35.2690  -36.3600 C   0  0  0  0  0  0  0  0  0  0  0  0
    9.5120  -33.6790  -32.6670 C   0  0  0  0  0  0  0  0  0  0  0  0
    9.6790  -31.9940  -29.5260 C   0  0  0  0  0  0  0  0  0  0  0  0
    7.4170  -33.9790  -33.7530 C   0  0  1  0  0  0  0  0  0  0  0  0
    7.9930  -36.0840  -36.7090 C   0  0  0  0  0  0  0  0  0  0  0  0
   11.7170  -34.6720  -32.9900 O   0  0  0  0  0  0  0  0  0  0  0  0
    7.7660  -32.5690  -32.0270 N   0  0  0  0  0  0  0  0  0  0  0  0
    4.6100  -33.1950  -32.7780 C   0  0  2  0  0  0  0  0  0  0  0  0
   10.8680  -33.9760  -32.2980 C   0  0  0  0  0  0  0  0  0  0  0  0
   11.1190  -33.3900  -30.9620 C   0  0  0  0  0  0  0  0  0  0  0  0
    9.8410  -32.7960  -30.7550 C   0  0  0  0  0  0  0  0  0  0  0  0
    9.5600  -35.0380  -34.7680 C   0  0  0  0  0  0  0  0  0  0  0  0
    8.7750  -34.1560  -33.7680 C   0  0  0  0  0  0  0  0  0  0  0  0
    8.9140  -32.9970  -31.6580 C   0  0  2  0  0  0  0  0  0  0  0  0
    9.0750  -35.8570  -35.6700 C   0  0  0  0  0  0  0  0  0  0  0  0
    4.0900  -33.8290  -34.0230 C   0  0  0  0  0  0  0  0  0  0  0  0
    6.4610  -35.4890  -33.9200 C   0  0  0  0  0  0  0  0  0  0  0  0
    6.5620  -34.5330  -34.9360 C   0  0  1  0  0  0  0  0  0  0  0  0
  1 13  2  0
 24  2  1  6
  2 22  1  0
  4  1  1  0
  4 14  1  0
  5  6  1  0
  8 15  2  0
  9  6  1  0
 10 23  1  1
 10  1  1  0
 11  7  1  0
 11 21  1  0
 12 15  1  0
 20 13  1  6
 14  3  1  6
 15 16  1  0
 16 17  2  0
 16  5  1  0
 17  9  1  0
 18 19  2  0
 19 10  1  0
 19  8  1  0
 20  8  1  0
 20 17  1  0
 21 18  1  0
 22 14  1  0
 24  7  1  0
 24 23  1  0
 24 10  1  0
M  END
$$$$

     RDKit          3D

 20 22  0  0  0  0  0  0  0  0999 V2000
    9.7620  -34.3320  -32.5970 C   0  0  2  0  0  0  0  0  0  0  0  0
    5.5700  -34.7800  -35.4840 C   0  0  0  0  0  0  0  0  0  0  0  0
   10.9620  -33.6220  -32.2600 C   0  0  0  0  0  0  0  0  0  0  0  0
    3.6770  -33.2730  -35.0160 C   0  0  0  0  0  0  0  0  0  0  0  0
   10.1120  -35.4460  -33.2530 C   0  0  0  0  0  0  0  0  0  0  0  0
    6.3410  -34.2020  -34.1340 C   0  0  0  0  0  0  0  0  0  0  0  0
   11.7360  -34.9860  -34.2310 C   0  0  0  0  0  0  0  0  0  0  0  0
   10.0210  -34.9490  -33.9500 C   0  0  0  0  0  0  0  0  0  0  0  0
    7.6680  -34.6810  -33.7300 C   0  0  0  0  0  0  0  0  0  0  0  0
    6.5640  -32.4490  -32.6260 N   0  0  0  0  0  0  0  0  0  0  0  0
    8.0260  -35.8300  -34.3650 C   0  0  0  0  0  0  0  0  0  0  0  0
    8.5590  -32.2650  -31.1600 O   0  0  0  0  0  0  0  0  0  0  0  0
   11.3470  -32.8600  -31.3480 O   0  0  0  0  0  0  0  0  0  0  0  0
   12.0720  -34.1060  -33.1240 C   0  0  0  0  0  0  0  0  0  0  0  0
    4.4260  -32.7640  -33.9580 C   0  0  0  0  0  0  0  0  0  0  0  0
    8.3430  -34.0540  -32.8690 C   0  0  0  0  0  0  0  0  0  0  0  0
    5.8490  -33.1910  -33.6370 C   0  0  0  0  0  0  0  0  0  0  0  0
    6.0960  -35.6990  -36.2210 O   0  0  0  0  0  0  0  0  0  0  0  0
    4.2510  -34.2490  -35.7740 C   0  0  0  0  0  0  0  0  0  0  0  0
    7.8410  -32.6810  -32.4970 C   0  0  1  0  0  0  0  0  0  0  0  0
  1 16  1  6
  1  3  1  0
  2  6  2  0
  3 13  2  0
  4 15  1  0
  5  1  1  0
  6  9  1  0
  6 17  1  0
  7  8  1  0
  7 14  1  0
  8  5  1  0
  9 16  2  0
 10 20  1  0
 11  9  1  0
 14  3  1  0
 15 17  2  0
 16 20  1  0
 17 10  1  0
 18  2  1  0
 19  2  1  0
 19  4  2  0
 20 12  1  1
M  END
$$$$

     RDKit          3D

 39 45  0  0  0  0  0  0  0  0999 V2000
    4.0620  -34.0400  -34.0280 C   0  0  0  0  0  0  0  0  0  0  0  0
    9.8010  -32.7220  -30.2050 C   0  0  0  0  0  0  0  0  0  0  0  0
    4.6260  -35.7870  -36.2920 C   0  0  0  0  0  0  0  0  0  0  0  0
   12.0320  -34.5590  -34.0860 C   0  0  0  0  0  0  0  0  0  0  0  0
    3.7660  -31.4450  -31.3570 C   0  0  0  0  0  0  0  0  0  0  0  0
    7.3490  -32.2180  -30.9370 C   0  0  1  0  0  0  0  0  0  0  0  0
   12.1050  -33.4960  -30.2280 C   0  0  0  0  0  0  0  0  0  0  0  0
   10.8590  -33.1420  -30.9470 C   0  0  0  0  0  0  0  0  0  0  0  0
   10.8450  -33.6540  -32.2360 C   0  0  0  0  0  0  0  0  0  0  0  0
   10.8900  -35.3390  -34.3500 C   0  0  0  0  0  0  0  0  0  0  0  0
    3.3990  -35.0950  -36.0390 O   0  0  0  0  0  0  0  0  0  0  0  0
    3.6300  -33.0690  -33.0590 C   0  0  0  0  0  0  0  0  0  0  0  0
    4.6620  -34.2940  -38.0430 C   0  0  0  0  0  0  0  0  0  0  0  0
   12.9610  -32.6510  -32.7880 O   0  0  0  0  0  0  0  0  0  0  0  0
    2.4090  -31.7080  -31.6390 C   0  0  0  0  0  0  0  0  0  0  0  0
    6.7940  -32.9580  -33.0410 C   0  0  0  0  0  0  0  0  0  0  0  0
    9.6820  -35.0040  -33.8700 O   0  0  0  0  0  0  0  0  0  0  0  0
    4.5950  -32.2260  -32.3140 C   0  0  0  0  0  0  0  0  0  0  0  0
    6.6170  -31.3600  -31.4480 O   0  0  0  0  0  0  0  0  0  0  0  0
    2.3200  -32.6670  -32.5990 N   0  0  0  0  0  0  0  0  0  0  0  0
    8.1770  -33.5460  -32.6390 C   0  0  0  0  0  0  0  0  0  0  0  0
    7.4470  -36.1460  -36.8180 C   0  0  1  0  0  0  0  0  0  0  0  0
    8.4260  -32.7270  -31.3340 C   0  0  0  0  0  0  0  0  0  0  0  0
   12.0130  -33.6410  -33.0640 C   0  0  0  0  0  0  0  0  0  0  0  0
    5.2300  -33.4300  -39.0210 C   0  0  0  0  0  0  0  0  0  0  0  0
    6.7740  -35.2630  -37.5470 C   0  0  0  0  0  0  0  0  0  0  0  0
    3.6410  -33.8360  -35.5020 C   0  0  0  0  0  0  0  0  0  0  0  0
    5.4520  -35.1130  -37.2990 N   0  0  0  0  0  0  0  0  0  0  0  0
   10.9080  -36.2760  -35.1100 O   0  0  0  0  0  0  0  0  0  0  0  0
    9.9490  -32.3610  -28.8700 C   0  0  0  0  0  0  0  0  0  0  0  0
    6.7100  -33.7030  -39.3230 C   0  0  0  0  0  0  0  0  0  0  0  0
    7.3860  -34.5790  -38.6620 C   0  0  0  0  0  0  0  0  0  0  0  0
    7.7410  -31.4620  -30.0530 O   0  0  0  0  0  0  0  0  0  0  0  0
   12.2250  -33.0180  -28.9120 C   0  0  0  0  0  0  0  0  0  0  0  0
    6.0110  -32.2210  -32.3640 C   0  0  1  0  0  0  0  0  0  0  0  0
    8.5550  -35.9880  -36.4460 O   0  0  0  0  0  0  0  0  0  0  0  0
   11.1810  -32.4900  -28.2790 C   0  0  0  0  0  0  0  0  0  0  0  0
    9.5700  -34.1860  -32.8960 C   0  0  0  0  0  0  0  0  0  0  0  0
    7.7810  -35.9150  -35.6030 C   0  0  0  0  0  0  0  0  0  0  0  0
  1 12  1  0
  2 30  1  0
  3 11  1  0
  4 24  2  0
  6 33  1  1
  7 34  2  0
  8  7  1  0
  8  2  1  0
  9  8  2  0
 10  4  1  0
 10 17  1  0
 11 27  1  0
 12 20  2  0
 12 18  1  0
 13 28  1  0
 15  5  1  0
 16 21  1  0
 16 35  1  0
 17 38  1  0
 18  5  2  0
 19  6  1  0
 20 15  1  0
 21 23  1  0
 22 26  1  6
 22 36  1  0
 22 39  1  0
 23  6  1  0
 23  2  2  0
 24 14  1  0
 24  9  1  0
 25 13  1  0
 26 28  1  0
 27  1  1  0
 28  3  1  0
 29 10  2  0
 30 37  2  0
 31 25  2  0
 31 32  1  0
 32 26  2  0
 34 37  1  0
 35 18  1  1
 35 19  1  0
 36 39  1  0
 38 21  2  0
 38  9  1  0
M  END
$$$$

     RDKit          3D

 38 45  0  0  0  0  0  0  0  0999 V2000
    8.7530  -31.9940  -30.8640 C   0  0  0  0  0  0  0  0  0  0  0  0
   13.2300  -32.7220  -28.6880 F   0  0  0  0  0  0  0  0  0  0  0  0
    2.1980  -34.3270  -38.5360 C   0  0  2  0  0  0  0  0  0  0  0  0
    6.2030  -35.8990  -34.8170 C   0  0  1  0  0  0  0  0  0  0  0  0
    9.0590  -34.7740  -33.7130 C   0  0  2  0  0  0  0  0  0  0  0  0
   11.5850  -33.1770  -30.1180 C   0  0  1  0  0  0  0  0  0  0  0  0
   12.0170  -32.0310  -29.7870 C   0  0  0  0  0  0  0  0  0  0  0  0
    4.5770  -34.1410  -34.3570 C   0  0  0  0  0  0  0  0  0  0  0  0
   11.1160  -34.1100  -33.1390 C   0  0  0  0  0  0  0  0  0  0  0  0
   10.7920  -35.4230  -33.6590 C   0  0  1  0  0  0  0  0  0  0  0  0
   11.9350  -36.0840  -34.2050 O   0  0  0  0  0  0  0  0  0  0  0  0
   11.2820  -32.1360  -28.1160 F   0  0  0  0  0  0  0  0  0  0  0  0
   12.4250  -33.8100  -30.9760 O   0  0  0  0  0  0  0  0  0  0  0  0
    0.6230  -34.6320  -39.1450 C   0  0  0  0  0  0  0  0  0  0  0  0
    6.9830  -33.4150  -33.3560 O   0  0  0  0  0  0  0  0  0  0  0  0
    9.7890  -37.0180  -33.8760 O   0  0  0  0  0  0  0  0  0  0  0  0
   12.0390  -32.9570  -28.7460 C   0  0  1  0  0  0  0  0  0  0  0  0
   10.0550  -35.7880  -34.6840 C   0  0  0  0  0  0  0  0  0  0  0  0
    9.7530  -34.6940  -33.2360 C   0  0  2  0  0  0  0  0  0  0  0  0
    5.9190  -34.5780  -35.1640 N   0  0  0  0  0  0  0  0  0  0  0  0
   12.9920  -34.6220  -32.6940 O   0  0  0  0  0  0  0  0  0  0  0  0
    2.5280  -34.8580  -37.5890 N   0  0  0  0  0  0  0  0  0  0  0  0
    8.0720  -35.0630  -34.4470 C   0  0  2  0  0  0  0  0  0  0  0  0
    3.0610  -33.7650  -37.6660 C   0  0  1  0  0  0  0  0  0  0  0  0
    4.3890  -33.7650  -36.6390 C   0  0  0  0  0  0  0  0  0  0  0  0
    7.7880  -31.9370  -31.4240 C   0  0  0  0  0  0  0  0  0  0  0  0
    7.7130  -32.8610  -32.5730 C   0  0  0  0  0  0  0  0  0  0  0  0
    4.9410  -34.4630  -35.4450 C   0  0  2  0  0  0  0  0  0  0  0  0
    9.6410  -32.4750  -31.6460 C   0  0  2  0  0  0  0  0  0  0  0  0
    8.8800  -32.9820  -32.5460 N   0  0  0  0  0  0  0  0  0  0  0  0
    7.1010  -36.5890  -35.3110 F   0  0  0  0  0  0  0  0  0  0  0  0
   10.4130  -33.3510  -30.5160 O   0  0  0  0  0  0  0  0  0  0  0  0
    9.0310  -35.8730  -34.3560 C   0  0  2  0  0  0  0  0  0  0  0  0
   12.1580  -34.1580  -32.0570 C   0  0  0  0  0  0  0  0  0  0  0  0
    9.0790  -33.6270  -33.2750 C   0  0  0  0  0  0  0  0  0  0  0  0
    8.0110  -34.6050  -35.9850 F   0  0  0  0  0  0  0  0  0  0  0  0
    9.4490  -35.1780  -32.1710 O   0  0  0  0  0  0  0  0  0  0  0  0
    6.8400  -34.9240  -34.1360 C   0  0  1  0  0  0  0  0  0  0  0  0
  3 14  1  1
  3 24  1  0
  3 22  1  0
  4 31  1  6
  4 38  1  0
  5 35  1  6
  5 19  1  0
  6  7  1  6
  6 17  1  0
  7 17  1  0
  9 34  1  0
 10 11  1  6
 10 19  1  0
 10  9  1  0
 13  6  1  0
 15 27  1  0
 17  2  1  1
 17 12  1  0
 18 33  1  0
 18 10  1  0
 19 37  1  1
 20  4  1  0
 20 38  1  0
 21 34  2  0
 23 36  1  6
 23 33  1  0
 23 38  1  0
 23  5  1  0
 24 22  1  0
 24 25  1  6
 25 28  1  0
 26  1  1  0
 27 30  1  0
 27 26  1  0
 28 20  1  0
 28  8  1  1
 29  1  1  1
 29 32  1  0
 30 35  1  0
 30 29  1  0
 32  6  1  0
 33 16  1  6
 33  5  1  0
 34 13  1  0
 38 15  1  1
M  END
$$$$

     RDKit          3D

 34 39  0  0  0  0  0  0  0  0999 V2000
   11.7270  -34.6230  -33.2450 N   0  0  0  0  0  0  0  0  0  0  0  0
    9.5960  -32.6740  -31.3850 C   0  0  0  0  0  0  0  0  0  0  0  0
   11.6520  -32.8620  -30.1190 C   0  0  0  0  0  0  0  0  0  0  0  0
    6.3810  -35.0630  -34.7050 O   0  0  0  0  0  0  0  0  0  0  0  0
    9.8590  -31.5350  -29.1960 C   0  0  0  0  0  0  0  0  0  0  0  0
    6.2210  -35.1340  -35.4950 O   0  0  0  0  0  0  0  0  0  0  0  0
   10.3340  -33.7530  -32.1120 C   0  0  1  0  0  0  0  0  0  0  0  0
   10.5360  -31.1090  -28.0820 O   0  0  0  0  0  0  0  0  0  0  0  0
    7.7390  -31.5500  -30.3830 C   0  0  0  0  0  0  0  0  0  0  0  0
    4.7200  -34.9350  -37.3980 O   0  0  0  0  0  0  0  0  0  0  0  0
    2.7550  -33.2450  -34.9960 N   0  0  0  0  0  0  0  0  0  0  0  0
    8.2040  -32.3130  -31.4550 C   0  0  0  0  0  0  0  0  0  0  0  0
   10.4520  -32.3090  -30.1900 C   0  0  0  0  0  0  0  0  0  0  0  0
    6.0350  -32.9970  -32.9570 C   0  0  1  0  0  0  0  0  0  0  0  0
   10.7060  -35.7260  -34.5800 O   0  0  0  0  0  0  0  0  0  0  0  0
    8.4160  -35.5860  -34.4770 C   0  0  0  0  0  0  0  0  0  0  0  0
   12.2500  -33.4760  -31.1230 N   0  0  0  0  0  0  0  0  0  0  0  0
    5.3210  -34.3770  -38.4990 C   0  0  0  0  0  0  0  0  0  0  0  0
    4.5210  -33.5750  -39.4210 O   0  0  0  0  0  0  0  0  0  0  0  0
    7.1530  -33.7620  -33.5260 C   0  0  2  0  0  0  0  0  0  0  0  0
    8.5190  -31.1850  -29.2460 C   0  0  0  0  0  0  0  0  0  0  0  0
    9.6860  -34.1980  -33.2040 C   0  0  2  0  0  0  0  0  0  0  0  0
    2.9630  -33.9250  -36.1850 C   0  0  0  0  0  0  0  0  0  0  0  0
    2.1700  -34.1830  -37.0340 O   0  0  0  0  0  0  0  0  0  0  0  0
    5.2750  -34.1620  -35.2490 C   0  0  2  0  0  0  0  0  0  0  0  0
    8.3560  -34.3500  -33.5950 C   0  0  0  0  0  0  0  0  0  0  0  0
    7.8140  -36.5590  -35.3090 C   0  0  0  0  0  0  0  0  0  0  0  0
    6.6470  -36.3060  -36.1070 C   0  0  0  0  0  0  0  0  0  0  0  0
    7.3410  -32.7420  -32.4290 N   0  0  0  0  0  0  0  0  0  0  0  0
    4.8810  -33.6290  -34.1130 C   0  0  2  0  0  0  0  0  0  0  0  0
    4.4000  -34.1350  -36.4140 C   0  0  1  0  0  0  0  0  0  0  0  0
    3.7010  -32.8930  -34.1600 C   0  0  0  0  0  0  0  0  0  0  0  0
   11.7370  -33.8360  -32.1980 C   0  0  0  0  0  0  0  0  0  0  0  0
   10.6040  -35.1080  -33.9390 C   0  0  0  0  0  0  0  0  0  0  0  0
  1 33  2  0
  2 13  2  0
  5  8  1  0
  6  4  1  0
  7 33  1  6
  7  2  1  0
  9 21  1  0
 11 32  1  0
 12  2  1  0
 12  9  2  0
 13  3  1  0
 13  5  1  0
 14 29  1  6
 15 34  2  0
 16 26  2  3
 17  3  2  0
 18 10  1  0
 19 18  1  0
 20 26  1  0
 20 14  1  0
 20 29  1  6
 21  5  2  0
 22 34  1  1
 22  7  1  0
 23 11  1  0
 24 23  2  0
 25  6  1  1
 25 30  1  0
 26 22  1  0
 27 16  1  0
 28 27  1  0
 29 12  1  0
 30 32  1  6
 30 14  1  0
 31 10  1  1
 31 23  1  0
 31 25  1  0
 33 17  1  0
 34  1  1  0
M  END
$$$$

     RDKit          3D

 35 44  0  0  0  0  0  0  0  0999 V2000
    7.5940  -31.3320  -30.1320 O   0  0  0  0  0  0  0  0  0  0  0  0
   12.8580  -32.9810  -29.2930 C   0  0  0  0  0  0  0  0  0  0  0  0
   13.2920  -34.0360  -31.1640 O   0  0  0  0  0  0  0  0  0  0  0  0
    4.5750  -33.0810  -32.8760 C   0  0  0  0  0  0  0  0  0  0  0  0
   10.0520  -36.6550  -34.3550 C   0  0  0  0  0  0  0  0  0  0  0  0
    8.6960  -34.9130  -34.2160 C   0  0  0  0  0  0  0  0  0  0  0  0
   12.0280  -33.1440  -28.2830 C   0  0  0  0  0  0  0  0  0  0  0  0
    8.8480  -35.7650  -34.9470 C   0  0  2  0  0  0  0  0  0  0  0  0
    4.6310  -31.7580  -30.7010 O   0  0  0  0  0  0  0  0  0  0  0  0
    8.6610  -33.0300  -31.1190 O   0  0  0  0  0  0  0  0  0  0  0  0
   10.1250  -36.4840  -32.7240 C   0  0  0  0  0  0  0  0  0  0  0  0
   10.9250  -35.2260  -32.1480 C   0  0  2  0  0  0  0  0  0  0  0  0
    5.9070  -36.1360  -36.3420 C   0  0  0  0  0  0  0  0  0  0  0  0
    4.6060  -35.7980  -36.3010 C   0  0  0  0  0  0  0  0  0  0  0  0
    6.6600  -32.3610  -31.8600 C   0  0  2  0  0  0  0  0  0  0  0  0
   10.7290  -33.8440  -34.0030 O   0  0  0  0  0  0  0  0  0  0  0  0
    3.8590  -34.3560  -34.6170 C   0  0  0  0  0  0  0  0  0  0  0  0
   10.8500  -33.7520  -28.8960 C   0  0  0  0  0  0  0  0  0  0  0  0
    5.3190  -32.4030  -31.7370 N   0  0  0  0  0  0  0  0  0  0  0  0
    8.1860  -33.0080  -33.2570 C   0  0  1  0  0  0  0  0  0  0  0  0
    6.4510  -34.4230  -34.5870 C   0  0  2  0  0  0  0  0  0  0  0  0
   12.4580  -33.6070  -30.4510 C   0  0  0  0  0  0  0  0  0  0  0  0
    4.3370  -34.9030  -35.3540 C   0  0  1  0  0  0  0  0  0  0  0  0
   10.5570  -35.0530  -30.7510 C   0  0  0  0  0  0  0  0  0  0  0  0
    7.0240  -33.1720  -32.9360 C   0  0  2  0  0  0  0  0  0  0  0  0
    5.0550  -34.3850  -34.6220 C   0  0  0  0  0  0  0  0  0  0  0  0
    8.1010  -35.9070  -34.6510 C   0  0  1  0  0  0  0  0  0  0  0  0
   10.5310  -34.0140  -32.8970 C   0  0  0  0  0  0  0  0  0  0  0  0
    5.7420  -33.6100  -33.6450 C   0  0  2  0  0  0  0  0  0  0  0  0
    7.6130  -32.2040  -30.9590 C   0  0  0  0  0  0  0  0  0  0  0  0
    9.3280  -33.0760  -32.3030 C   0  0  2  0  0  0  0  0  0  0  0  0
    7.6230  -34.3770  -34.7400 C   0  0  2  0  0  0  0  0  0  0  0  0
    8.1500  -33.7130  -34.0360 C   0  0  0  0  0  0  0  0  0  0  0  0
    6.8580  -35.4840  -35.3270 C   0  0  1  0  0  0  0  0  0  0  0  0
   11.2080  -34.0990  -30.1470 N   0  0  0  0  0  0  0  0  0  0  0  0
  2  7  2  0
  3 22  2  0
  4 19  1  0
  5 11  1  0
 27  8  1  6
  8  5  1  0
  8  6  1  1
 10 30  1  0
 11 12  1  0
 12 24  1  1
 13 14  2  0
 34 13  1  6
 14 23  1  0
 15 19  1  1
 15 30  1  0
 16 28  2  0
 18  7  1  0
 19  9  1  0
 20 33  1  6
 20 25  1  0
 20 31  1  0
 21 29  1  0
 22 35  1  0
 22  2  1  0
 23 26  1  0
 23 17  1  1
 24 35  1  0
 25 15  1  6
 26 17  1  0
 21 26  1  6
 26 29  1  0
 28 31  1  0
 28 12  1  0
 29 25  1  0
 29  4  1  6
 30  1  2  0
 31 10  1  1
 32 27  1  0
 32 21  1  0
 32 33  1  6
 34 32  1  0
 34 27  1  0
 34 21  1  0
 35 18  1  0
M  END
$$$$

     RDKit          3D

 28 35  0  0  0  0  0  0  0  0999 V2000
   11.1840  -33.9350  -31.3930 C   0  0  1  0  0  0  0  0  0  0  0  0
    9.8690  -33.1210  -33.0770 O   0  0  0  0  0  0  0  0  0  0  0  0
    7.4040  -34.4310  -35.0140 C   0  0  1  0  0  0  0  0  0  0  0  0
   11.1890  -34.8110  -34.0500 C   0  0  1  0  0  0  0  0  0  0  0  0
    9.8310  -35.6680  -32.9210 C   0  0  2  0  0  0  0  0  0  0  0  0
    8.2130  -32.0030  -30.4450 C   0  0  0  0  0  0  0  0  0  0  0  0
    9.7360  -32.9130  -31.7650 C   0  0  2  0  0  0  0  0  0  0  0  0
   11.3040  -33.9770  -32.8710 C   0  0  1  0  0  0  0  0  0  0  0  0
    9.6720  -36.9070  -33.4310 C   0  0  0  0  0  0  0  0  0  0  0  0
    9.0170  -34.7950  -33.3990 C   0  0  2  0  0  0  0  0  0  0  0  0
   10.2450  -33.8840  -30.9540 C   0  0  1  0  0  0  0  0  0  0  0  0
    8.9430  -31.2570  -29.1870 C   0  0  0  0  0  0  0  0  0  0  0  0
   11.2920  -36.1960  -34.5570 C   0  0  0  0  0  0  0  0  0  0  0  0
    5.0270  -35.4200  -35.8450 C   0  0  0  0  0  0  0  0  0  0  0  0
    7.8950  -34.6130  -33.9390 C   0  0  1  0  0  0  0  0  0  0  0  0
    7.1410  -31.8100  -30.6090 O   0  0  0  0  0  0  0  0  0  0  0  0
    9.8210  -33.4220  -29.6070 C   0  0  0  0  0  0  0  0  0  0  0  0
    7.1860  -35.6180  -35.3180 C   0  0  0  0  0  0  0  0  0  0  0  0
   10.8390  -34.6220  -30.5760 O   0  0  0  0  0  0  0  0  0  0  0  0
   10.2610  -34.6830  -33.2910 C   0  0  1  0  0  0  0  0  0  0  0  0
    7.9930  -34.3220  -32.6880 C   0  0  2  0  0  0  0  0  0  0  0  0
   10.6450  -37.2200  -34.3500 C   0  0  0  0  0  0  0  0  0  0  0  0
    6.2180  -36.0230  -36.1800 C   0  0  0  0  0  0  0  0  0  0  0  0
    7.2490  -33.0480  -32.5940 C   0  0  0  0  0  0  0  0  0  0  0  0
   10.2410  -32.1720  -29.0690 C   0  0  0  0  0  0  0  0  0  0  0  0
   12.2080  -33.4700  -32.0260 O   0  0  0  0  0  0  0  0  0  0  0  0
    6.7440  -34.4940  -34.6330 C   0  0  0  0  0  0  0  0  0  0  0  0
    9.1110  -33.1520  -30.7020 C   0  0  2  0  0  0  0  0  0  0  0  0
  1 26  1  1
  1 11  1  0
  1 19  1  0
  3 27  1  1
 15  3  1  6
  4 13  1  1
 20  4  1  6
  4  8  1  0
  5  9  1  6
  6 12  1  0
  7  2  1  6
  7 11  1  0
  7 28  1  0
  8 26  1  6
  8  1  1  0
 10 20  1  0
 10  5  1  0
 10 21  1  1
 11 28  1  0
 11 19  1  6
 12 25  1  0
 13 22  1  0
 15 10  1  0
 15 21  1  0
 16  6  2  0
 17 25  1  0
 18  3  1  0
 20  5  1  0
 20  8  1  0
 21 24  1  6
 22  9  1  0
 23 14  1  0
 23 18  1  0
 28  6  1  0
 28 17  1  6
M  END
$$$$

     RDKit          3D

 29 34  0  0  0  0  0  0  0  0999 V2000
    3.9530  -33.9520  -36.9240 C   0  0  0  0  0  0  0  0  0  0  0  0
    5.8370  -32.8380  -32.8250 C   0  0  2  0  0  0  0  0  0  0  0  0
    8.3110  -35.1720  -33.8220 C   0  0  0  0  0  0  0  0  0  0  0  0
    9.7980  -35.9370  -33.7020 C   0  0  0  0  0  0  0  0  0  0  0  0
    9.4480  -37.5500  -34.0350 C   0  0  0  0  0  0  0  0  0  0  0  0
    4.6150  -34.7750  -37.8510 C   0  0  0  0  0  0  0  0  0  0  0  0
   10.1440  -34.2790  -32.2950 C   0  0  1  0  0  0  0  0  0  0  0  0
   10.3340  -34.9590  -33.3580 C   0  0  2  0  0  0  0  0  0  0  0  0
    5.7240  -34.3730  -35.3370 C   0  0  0  0  0  0  0  0  0  0  0  0
    7.7030  -31.9230  -30.8680 C   0  0  0  0  0  0  0  0  0  0  0  0
    6.1950  -33.5650  -33.8130 C   0  0  0  0  0  0  0  0  0  0  0  0
    7.5810  -33.0990  -32.6160 C   0  0  1  0  0  0  0  0  0  0  0  0
    6.9480  -32.2860  -31.5240 C   0  0  0  0  0  0  0  0  0  0  0  0
    8.5890  -33.7330  -32.3950 C   0  0  0  0  0  0  0  0  0  0  0  0
   10.2540  -37.0750  -33.7240 C   0  0  0  0  0  0  0  0  0  0  0  0
    5.7690  -35.4890  -37.3460 C   0  0  0  0  0  0  0  0  0  0  0  0
    8.6690  -36.2200  -34.1310 C   0  0  1  0  0  0  0  0  0  0  0  0
    3.9460  -34.9760  -38.7610 O   0  0  0  0  0  0  0  0  0  0  0  0
    5.2290  -33.0540  -32.9500 C   0  0  0  0  0  0  0  0  0  0  0  0
   10.8370  -34.4780  -31.4290 C   0  0  0  0  0  0  0  0  0  0  0  0
    4.4770  -33.6950  -35.7720 C   0  0  0  0  0  0  0  0  0  0  0  0
    6.0780  -35.4230  -36.0300 C   0  0  0  0  0  0  0  0  0  0  0  0
    8.9840  -34.6830  -33.0760 C   0  0  1  0  0  0  0  0  0  0  0  0
   10.6550  -33.5770  -32.2390 C   0  0  2  0  0  0  0  0  0  0  0  0
    9.7670  -33.0250  -32.0060 C   0  0  0  0  0  0  0  0  0  0  0  0
    4.2850  -33.4340  -33.5940 O   0  0  0  0  0  0  0  0  0  0  0  0
   11.3770  -34.1530  -33.2740 C   0  0  0  0  0  0  0  0  0  0  0  0
    5.7780  -31.9960  -31.6630 C   0  0  0  0  0  0  0  0  0  0  0  0
    7.0310  -34.3220  -34.2170 C   0  0  0  0  0  0  0  0  0  0  0  0
  1 21  2  0
  2 19  1  1
  2 12  1  0
  2 28  1  0
  3 29  1  0
  3 23  1  0
  4 15  1  0
  4  8  1  0
  5 15  1  0
  6 16  1  0
  6  1  1  0
  7 24  1  0
  7 20  1  1
  8 27  1  6
  8 23  1  0
  8  7  1  0
  9 29  1  0
 11  2  1  0
 12 14  1  1
 12 13  1  0
 13 10  2  0
 16 22  1  0
 17  5  1  1
 17  3  1  0
 17  4  1  0
 18  6  2  0
 21  9  1  0
 22  9  1  0
 23 14  1  6
 24 25  1  6
 26 19  1  0
 27 24  1  0
 28 13  1  0
 29 11  2  0
M  END
$$$$

     RDKit          3D

 19 21  0  0  0  0  0  0  0  0999 V2000
    8.1250  -32.8470  -32.1520 C   0  0  0  0  0  0  0  0  0  0  0  0
    8.8560  -33.9230  -32.4710 C   0  0  0  0  0  0  0  0  0  0  0  0
    9.7410  -35.6900  -33.5680 C   0  0  0  0  0  0  0  0  0  0  0  0
   10.0170  -34.4820  -31.7390 C   0  0  1  0  0  0  0  0  0  0  0  0
    4.1600  -32.7350  -33.3650 C   0  0  0  0  0  0  0  0  0  0  0  0
    6.8120  -32.6910  -32.4440 C   0  0  0  0  0  0  0  0  0  0  0  0
    9.8340  -36.5910  -34.3950 O   0  0  0  0  0  0  0  0  0  0  0  0
    5.1740  -33.4310  -34.0600 C   0  0  0  0  0  0  0  0  0  0  0  0
    8.7600  -32.0470  -31.3280 O   0  0  0  0  0  0  0  0  0  0  0  0
    4.8180  -34.2290  -34.8940 O   0  0  0  0  0  0  0  0  0  0  0  0
    6.2910  -33.5940  -33.4490 C   0  0  0  0  0  0  0  0  0  0  0  0
    3.5060  -31.3440  -31.7080 F   0  0  0  0  0  0  0  0  0  0  0  0
    5.7350  -31.8540  -31.8690 C   0  0  0  0  0  0  0  0  0  0  0  0
    7.3360  -34.6300  -33.7720 C   0  0  0  0  0  0  0  0  0  0  0  0
    4.4840  -31.9570  -32.2230 C   0  0  0  0  0  0  0  0  0  0  0  0
    7.0150  -35.7020  -34.6580 O   0  0  0  0  0  0  0  0  0  0  0  0
   10.6250  -35.3510  -32.7380 O   0  0  0  0  0  0  0  0  0  0  0  0
   10.9200  -33.5620  -31.2890 O   0  0  0  0  0  0  0  0  0  0  0  0
    8.6220  -34.8510  -33.3560 C   0  0  0  0  0  0  0  0  0  0  0  0
  1  9  1  0
  2  1  2  0
  2  4  1  0
  3 19  1  0
  3 17  1  0
  4 18  1  6
  5 15  1  0
  6  1  1  0
  6 13  1  0
  7  3  2  0
  8 11  1  0
  8  5  1  0
 10  8  2  0
 11  6  2  0
 14 11  1  0
 14 19  2  0
 15 13  2  0
 15 12  1  0
 16 14  1  0
 17  4  1  0
 19  2  1  0
M  END
$$$$

     RDKit          3D

 19 19  0  0  0  0  0  0  0  0999 V2000
    6.6270  -35.6680  -37.1920 C   0  0  0  0  0  0  0  0  0  0  0  0
    9.4440  -34.7370  -33.7660 C   0  0  0  0  0  0  0  0  0  0  0  0
    8.1810  -35.2550  -35.5160 C   0  0  0  0  0  0  0  0  0  0  0  0
    7.8430  -35.8920  -36.6500 C   0  0  0  0  0  0  0  0  0  0  0  0
    5.2470  -32.5110  -32.3590 O   0  0  0  0  0  0  0  0  0  0  0  0
    8.7110  -32.9690  -32.1660 C   0  0  0  0  0  0  0  0  0  0  0  0
    8.4060  -32.1520  -31.0840 C   0  0  0  0  0  0  0  0  0  0  0  0
    7.2900  -34.6890  -34.7770 C   0  0  0  0  0  0  0  0  0  0  0  0
   11.5780  -33.7700  -31.4740 C   0  0  0  0  0  0  0  0  0  0  0  0
    5.9420  -34.6490  -35.2020 C   0  0  0  0  0  0  0  0  0  0  0  0
   12.4400  -34.0340  -30.6400 O   0  0  0  0  0  0  0  0  0  0  0  0
    8.8820  -34.3240  -33.0670 C   0  0  0  0  0  0  0  0  0  0  0  0
   12.0460  -33.3160  -32.8390 C   0  0  0  0  0  0  0  0  0  0  0  0
    5.5650  -35.2250  -36.3550 C   0  0  0  0  0  0  0  0  0  0  0  0
    7.3160  -32.9680  -33.1720 C   0  0  0  0  0  0  0  0  0  0  0  0
    7.8610  -34.3170  -33.5720 C   0  0  1  0  0  0  0  0  0  0  0  0
    6.3100  -32.2590  -32.6840 C   0  0  0  0  0  0  0  0  0  0  0  0
   10.2200  -34.0220  -31.2320 C   0  0  0  0  0  0  0  0  0  0  0  0
    9.0760  -33.8120  -32.2680 C   0  0  1  0  0  0  0  0  0  0  0  0
  1  4  2  0
  1 14  1  0
  2 12  2  0
  3  8  2  0
  4  3  1  0
  6  7  1  0
  8 16  1  0
  9 18  1  0
  9 11  2  0
 10  8  1  0
 12 19  1  0
 13  9  1  0
 14 10  2  0
 15 17  1  0
 16 15  1  6
 16 12  1  0
 17  5  2  0
 19  6  1  6
 19 18  1  0
M  END
$$$$

     RDKit          3D

 19 24  0  0  0  0  0  0  0  0999 V2000
    8.9660  -32.1630  -31.0380 C   0  0  0  0  0  0  0  0  0  0  0  0
   10.0280  -33.9320  -33.0970 C   0  0  0  0  0  0  0  0  0  0  0  0
    9.9000  -34.5870  -33.8610 C   0  0  0  0  0  0  0  0  0  0  0  0
    8.6670  -35.4690  -34.2030 C   0  0  0  0  0  0  0  0  0  0  0  0
    8.5970  -33.5590  -32.7370 C   0  0  2  0  0  0  0  0  0  0  0  0
    9.0320  -33.2050  -31.7980 C   0  0  0  0  0  0  0  0  0  0  0  0
    4.6940  -33.2010  -33.6420 C   0  0  0  0  0  0  0  0  0  0  0  0
    5.2570  -32.6540  -32.6210 C   0  0  0  0  0  0  0  0  0  0  0  0
    7.3370  -35.4900  -34.5200 C   0  0  2  0  0  0  0  0  0  0  0  0
    7.9090  -34.0170  -33.7030 C   0  0  1  0  0  0  0  0  0  0  0  0
    8.9650  -34.6350  -34.1100 C   0  0  1  0  0  0  0  0  0  0  0  0
    9.2040  -36.0770  -34.4870 C   0  0  0  0  0  0  0  0  0  0  0  0
    6.7450  -32.3720  -32.0860 C   0  0  0  0  0  0  0  0  0  0  0  0
    5.1050  -34.3250  -34.2520 C   0  0  0  0  0  0  0  0  0  0  0  0
    7.2660  -31.8520  -31.2380 C   0  0  0  0  0  0  0  0  0  0  0  0
    6.1210  -34.3910  -34.1050 C   0  0  0  0  0  0  0  0  0  0  0  0
    7.4230  -33.1380  -33.0840 C   0  0  1  0  0  0  0  0  0  0  0  0
    6.7370  -35.2790  -35.4020 C   0  0  0  0  0  0  0  0  0  0  0  0
    7.0300  -34.3470  -34.6460 C   0  0  2  0  0  0  0  0  0  0  0  0
  3  2  1  0
  4 11  1  0
  5  2  1  6
  5  6  1  0
  6  1  1  0
  7  8  1  0
  8 13  1  0
  9 18  1  6
  9  4  1  0
 10 17  1  0
 10  5  1  0
 11  3  1  1
 10 11  1  6
 12  4  2  0
 13 15  2  0
 14 16  1  0
 14  7  1  0
 15  1  1  0
 17  5  1  0
 17 13  1  1
 19 18  1  6
 19  9  1  0
 19 16  1  0
 19 10  1  0
M  END
$$$$

     RDKit          3D

 27 28  0  0  0  0  0  0  0  0999 V2000
    3.2610  -32.7600  -32.2680 C   0  0  0  0  0  0  0  0  0  0  0  0
    5.9340  -32.9730  -33.0580 C   0  0  0  0  0  0  0  0  0  0  0  0
    6.8530  -32.5210  -32.7730 C   0  0  0  0  0  0  0  0  0  0  0  0
    8.4920  -34.2170  -32.5650 C   0  0  0  0  0  0  0  0  0  0  0  0
    3.6990  -35.0640  -36.0120 C   0  0  2  0  0  0  0  0  0  0  0  0
    3.4540  -34.4550  -34.8950 N   0  0  0  0  0  0  0  0  0  0  0  0
    4.3220  -33.9390  -33.9680 C   0  0  2  0  0  0  0  0  0  0  0  0
   13.4240  -32.6130  -27.6750 C   0  0  0  0  0  0  0  0  0  0  0  0
   10.6180  -33.8000  -32.4380 C   0  0  0  0  0  0  0  0  0  0  0  0
    4.3680  -33.0490  -33.0020 C   0  0  1  0  0  0  0  0  0  0  0  0
    5.8700  -34.2710  -34.0350 S   0  0  0  0  0  0  0  0  0  0  0  0
   11.0860  -33.8690  -30.0190 C   0  0  0  0  0  0  0  0  0  0  0  0
   13.5520  -33.8040  -29.9550 O   0  0  0  0  0  0  0  0  0  0  0  0
    3.5980  -31.6710  -31.5320 C   0  0  1  0  0  0  0  0  0  0  0  0
    2.3740  -35.2390  -38.5390 O   0  0  0  0  0  0  0  0  0  0  0  0
    9.3760  -33.1640  -33.4500 O   0  0  0  0  0  0  0  0  0  0  0  0
   12.3450  -33.4110  -29.6320 C   0  0  0  0  0  0  0  0  0  0  0  0
   12.5500  -33.9330  -32.0760 C   0  0  0  0  0  0  0  0  0  0  0  0
    2.3890  -31.3490  -30.7890 O   0  0  0  0  0  0  0  0  0  0  0  0
    4.8010  -31.9720  -30.6980 C   0  0  0  0  0  0  0  0  0  0  0  0
   10.1330  -34.2070  -32.7740 N   0  0  0  0  0  0  0  0  0  0  0  0
    8.1510  -33.0320  -32.6080 C   0  0  1  0  0  0  0  0  0  0  0  0
    4.8810  -34.3870  -36.8590 O   0  0  0  0  0  0  0  0  0  0  0  0
    2.5600  -34.4250  -39.7410 C   0  0  0  0  0  0  0  0  0  0  0  0
   12.4350  -32.8190  -28.5430 O   0  0  0  0  0  0  0  0  0  0  0  0
   11.5020  -33.2830  -31.5530 C   0  0  1  0  0  0  0  0  0  0  0  0
    2.5160  -34.6440  -37.2390 C   0  0  0  0  0  0  0  0  0  0  0  0
  1 14  1  0
  2 10  1  0
  2  3  1  0
  5 23  1  6
  5  6  1  0
  7  6  1  6
  7 10  1  0
  9 26  1  0
 10  1  1  1
 11  7  1  0
 11  2  1  0
 12 17  1  0
 13 17  2  0
 14 19  1  0
 14 20  1  1
 15 27  1  0
 16 21  1  0
 16 22  1  0
 17 25  1  0
 21  4  1  0
 21  9  1  0
 22  3  1  6
 22  4  1  0
 24 15  1  0
 25  8  1  0
 26 18  1  6
 26 12  1  0
 27  5  1  0
M  END
$$$$

     RDKit          3D

 27 29  0  0  0  0  0  0  0  0999 V2000
    7.7010  -34.8570  -34.1670 C   0  0  2  0  0  0  0  0  0  0  0  0
    8.4410  -34.1310  -33.0160 C   0  0  0  0  0  0  0  0  0  0  0  0
    5.7030  -31.5240  -31.1600 C   0  0  0  0  0  0  0  0  0  0  0  0
    3.6480  -35.7450  -36.6720 N   0  0  0  0  0  0  0  0  0  0  0  0
    8.4580  -35.6330  -35.0960 C   0  0  0  0  0  0  0  0  0  0  0  0
    6.8120  -31.1130  -31.8250 O   0  0  0  0  0  0  0  0  0  0  0  0
   11.8280  -33.1040  -28.6760 O   0  0  0  0  0  0  0  0  0  0  0  0
   11.1730  -33.8980  -32.3450 C   0  0  0  0  0  0  0  0  0  0  0  0
    7.8010  -35.8110  -36.3310 C   0  0  0  0  0  0  0  0  0  0  0  0
    8.6710  -31.9440  -30.9090 C   0  0  0  0  0  0  0  0  0  0  0  0
    5.7330  -34.7830  -35.4340 C   0  0  2  0  0  0  0  0  0  0  0  0
    3.5280  -34.3230  -36.4150 C   0  0  0  0  0  0  0  0  0  0  0  0
    5.1070  -36.0720  -37.3790 C   0  0  0  0  0  0  0  0  0  0  0  0
   11.8710  -35.1950  -30.3020 C   0  0  0  0  0  0  0  0  0  0  0  0
    7.7590  -32.2950  -31.7170 C   0  0  0  0  0  0  0  0  0  0  0  0
    6.3560  -34.5620  -34.2800 C   0  0  0  0  0  0  0  0  0  0  0  0
   10.3100  -33.4740  -31.7840 C   0  0  0  0  0  0  0  0  0  0  0  0
    9.6330  -33.8510  -32.5140 C   0  0  0  0  0  0  0  0  0  0  0  0
    7.5170  -32.9900  -32.6420 N   0  0  0  0  0  0  0  0  0  0  0  0
    8.9830  -31.1170  -30.1040 O   0  0  0  0  0  0  0  0  0  0  0  0
    3.5160  -36.2620  -35.3580 N   0  0  0  0  0  0  0  0  0  0  0  0
   10.2050  -32.5420  -30.6220 C   0  0  0  0  0  0  0  0  0  0  0  0
    6.2560  -35.8930  -36.2390 C   0  0  1  0  0  0  0  0  0  0  0  0
   11.3260  -32.3350  -29.5310 C   0  0  0  0  0  0  0  0  0  0  0  0
   13.0490  -33.5430  -31.1960 O   0  0  0  0  0  0  0  0  0  0  0  0
    4.8960  -33.9790  -36.0320 C   0  0  0  0  0  0  0  0  0  0  0  0
   11.8450  -34.0770  -31.3200 C   0  0  1  0  0  0  0  0  0  0  0  0
  1  2  1  6
  2 19  1  0
  2 18  2  0
  4 12  1  0
  4 21  1  0
  5  1  1  0
  6 15  1  0
  6  3  1  0
  8 17  1  0
  8 27  1  0
 23  9  1  6
  9  5  1  0
 10 22  1  0
 10 20  2  0
 11 26  1  6
 11 16  1  0
 12 26  1  0
 13  4  1  0
 15 10  1  0
 16  1  1  0
 17 22  1  0
 18 17  2  0
 19 15  2  0
 22 24  1  0
 23 13  1  0
 23 11  1  0
 24  7  2  0
 27 25  1  0
 27 14  1  6
M  END
$$$$

     RDKit          3D

 32 36  0  0  0  0  0  0  0  0999 V2000
    5.7710  -33.4260  -33.5140 C   0  0  0  0  0  0  0  0  0  0  0  0
   11.8250  -34.7420  -32.7160 C   0  0  2  0  0  0  0  0  0  0  0  0
    5.0730  -31.5720  -32.0120 C   0  0  0  0  0  0  0  0  0  0  0  0
    4.3630  -34.9120  -37.6350 C   0  0  0  0  0  0  0  0  0  0  0  0
    9.7910  -33.5440  -32.1880 C   0  0  0  0  0  0  0  0  0  0  0  0
    7.7710  -34.8640  -34.8930 C   0  0  1  0  0  0  0  0  0  0  0  0
    8.8990  -32.5090  -31.7190 C   0  0  0  0  0  0  0  0  0  0  0  0
   11.9160  -36.8160  -33.4040 O   0  0  0  0  0  0  0  0  0  0  0  0
    8.1250  -34.1410  -33.7970 C   0  0  0  0  0  0  0  0  0  0  0  0
    5.7990  -35.7010  -35.6760 C   0  0  1  0  0  0  0  0  0  0  0  0
   11.2280  -35.7210  -33.2490 C   0  0  0  0  0  0  0  0  0  0  0  0
    9.7880  -37.6710  -34.5880 O   0  0  0  0  0  0  0  0  0  0  0  0
    9.9030  -35.5770  -33.5810 C   0  0  1  0  0  0  0  0  0  0  0  0
    7.2020  -33.3800  -33.1480 C   0  0  0  0  0  0  0  0  0  0  0  0
    6.4260  -31.5350  -31.6940 C   0  0  0  0  0  0  0  0  0  0  0  0
   11.1600  -34.1720  -31.4630 C   0  0  2  0  0  0  0  0  0  0  0  0
   10.0600  -32.9580  -29.5920 F   0  0  0  0  0  0  0  0  0  0  0  0
    9.2790  -34.3170  -33.4270 C   0  0  0  0  0  0  0  0  0  0  0  0
    5.7390  -34.7980  -36.7710 C   0  0  1  0  0  0  0  0  0  0  0  0
    3.5270  -35.8670  -37.2870 C   0  0  0  0  0  0  0  0  0  0  0  0
   12.1440  -33.5080  -29.4770 F   0  0  0  0  0  0  0  0  0  0  0  0
   12.4200  -33.6580  -33.2380 O   0  0  0  0  0  0  0  0  0  0  0  0
    7.0070  -35.1420  -37.6520 C   0  0  0  0  0  0  0  0  0  0  0  0
    6.0870  -37.0750  -35.9930 O   0  0  0  0  0  0  0  0  0  0  0  0
    7.4930  -32.4460  -32.1490 C   0  0  0  0  0  0  0  0  0  0  0  0
    8.1250  -35.9280  -35.2150 C   0  0  1  0  0  0  0  0  0  0  0  0
   11.3960  -31.9090  -30.7660 F   0  0  0  0  0  0  0  0  0  0  0  0
    5.2660  -34.5130  -34.2430 O   0  0  0  0  0  0  0  0  0  0  0  0
    4.9070  -32.6810  -32.9280 C   0  0  0  0  0  0  0  0  0  0  0  0
    9.3700  -36.5210  -34.5950 C   0  0  0  0  0  0  0  0  0  0  0  0
    6.9400  -35.3480  -35.5970 C   0  0  2  0  0  0  0  0  0  0  0  0
   11.0500  -33.1210  -30.3100 C   0  0  1  0  0  0  0  0  0  0  0  0
  1 14  2  0
  1 29  1  0
  2 22  1  6
  2 16  1  0
  3 15  1  0
  4 20  2  0
  4 19  1  0
  5  7  2  0
 16  5  1  6
  6  9  1  1
  9 18  2  0
  9 14  1  0
 10 24  1  6
 11  8  1  0
 11  2  1  0
 13 30  1  0
 13 18  1  0
 13 11  1  6
 14 25  1  0
 16 32  1  0
 18  5  1  0
 19 23  1  6
 19 10  1  0
 25  7  1  0
 25 15  2  0
 26  6  1  0
 26 30  1  1
 32 27  1  6
 28  1  1  0
 29  3  2  0
 30 12  2  0
 31 10  1  1
 31 26  1  0
 31  6  1  0
 32 17  1  0
 32 21  1  0
M  END
$$$$

     RDKit          3D

 16 17  0  0  0  0  0  0  0  0999 V2000
    6.4730  -35.3580  -35.6290 C   0  0  0  0  0  0  0  0  0  0  0  0
    7.4790  -32.0240  -31.6340 C   0  0  0  0  0  0  0  0  0  0  0  0
    6.3280  -31.5120  -31.8450 C   0  0  0  0  0  0  0  0  0  0  0  0
    7.5790  -33.6420  -33.3900 C   0  0  0  0  0  0  0  0  0  0  0  0
   10.3290  -33.1050  -31.6800 Cl  0  0  0  0  0  0  0  0  0  0  0  0
   10.1270  -35.1780  -33.8130 C   0  0  0  0  0  0  0  0  0  0  0  0
    7.9780  -34.5290  -34.4320 C   0  0  0  0  0  0  0  0  0  0  0  0
    6.9300  -33.4890  -33.2520 C   0  0  0  0  0  0  0  0  0  0  0  0
    7.7740  -33.0620  -32.3460 C   0  0  1  0  0  0  0  0  0  0  0  0
    6.7250  -33.9430  -33.7830 C   0  0  0  0  0  0  0  0  0  0  0  0
    7.7020  -35.5550  -35.3440 C   0  0  0  0  0  0  0  0  0  0  0  0
    5.0260  -34.0280  -34.7440 O   0  0  0  0  0  0  0  0  0  0  0  0
    9.0160  -34.4550  -33.5940 C   0  0  0  0  0  0  0  0  0  0  0  0
    5.6330  -32.5960  -32.9190 S   0  0  0  0  0  0  0  0  0  0  0  0
    8.8560  -33.4770  -32.4940 C   0  0  0  0  0  0  0  0  0  0  0  0
    5.9490  -34.2300  -34.7610 C   0  0  0  0  0  0  0  0  0  0  0  0
  1 11  1  0
  1 16  1  0
  3  2  1  0
  4  8  1  0
  4  9  1  0
  6 13  1  0
  7 13  1  0
  7  4  2  0
  8 14  1  0
  9  2  1  6
 10  8  2  0
 11  7  1  0
 13 15  2  0
 14  3  1  0
 15  9  1  0
 15  5  1  0
 16 12  2  0
M  END
$$$$

     RDKit          3D

 35 39  0  0  0  0  0  0  0  0999 V2000
    6.3440  -31.6470  -31.8060 C   0  0  0  0  0  0  0  0  0  0  0  0
    4.0870  -36.2810  -36.2500 C   0  0  0  0  0  0  0  0  0  0  0  0
   11.6590  -31.4580  -26.0760 N   0  0  0  0  0  0  0  0  0  0  0  0
    4.0200  -33.0920  -41.8760 C   0  0  0  0  0  0  0  0  0  0  0  0
    9.5800  -35.4310  -34.5830 C   0  0  0  0  0  0  0  0  0  0  0  0
    3.5830  -33.5050  -40.4910 C   0  0  1  0  0  0  0  0  0  0  0  0
   11.3830  -32.2180  -28.4090 C   0  0  1  0  0  0  0  0  0  0  0  0
    2.2180  -33.9140  -40.1670 C   0  0  0  0  0  0  0  0  0  0  0  0
    8.5100  -35.9390  -35.2050 C   0  0  0  0  0  0  0  0  0  0  0  0
   10.0980  -31.3580  -27.7790 C   0  0  0  0  0  0  0  0  0  0  0  0
    4.4580  -33.6060  -39.5190 N   0  0  0  0  0  0  0  0  0  0  0  0
   10.7430  -33.4530  -30.6860 C   0  0  0  0  0  0  0  0  0  0  0  0
    5.6540  -32.4500  -32.7090 C   0  0  0  0  0  0  0  0  0  0  0  0
   11.0670  -33.7820  -32.0320 C   0  0  0  0  0  0  0  0  0  0  0  0
    7.7600  -31.6820  -31.6840 C   0  0  0  0  0  0  0  0  0  0  0  0
    3.0270  -35.1010  -38.0810 C   0  0  0  0  0  0  0  0  0  0  0  0
    8.4260  -32.6200  -32.4650 C   0  0  0  0  0  0  0  0  0  0  0  0
    5.3290  -34.5300  -37.4710 C   0  0  0  0  0  0  0  0  0  0  0  0
   12.1910  -32.4150  -26.8300 C   0  0  0  0  0  0  0  0  0  0  0  0
    2.9350  -36.0300  -37.0240 C   0  0  0  0  0  0  0  0  0  0  0  0
   12.3890  -33.6830  -32.3330 C   0  0  0  0  0  0  0  0  0  0  0  0
   11.4170  -32.9190  -28.0400 C   0  0  0  0  0  0  0  0  0  0  0  0
    5.2850  -35.4760  -36.5330 C   0  0  0  0  0  0  0  0  0  0  0  0
   12.8320  -33.1670  -31.0200 N   0  0  0  0  0  0  0  0  0  0  0  0
    5.9510  -33.2090  -33.7560 C   0  0  0  0  0  0  0  0  0  0  0  0
   11.9150  -33.1340  -30.1180 C   0  0  0  0  0  0  0  0  0  0  0  0
    9.3910  -34.3960  -33.6850 C   0  0  0  0  0  0  0  0  0  0  0  0
    6.3190  -35.7980  -35.6840 O   0  0  0  0  0  0  0  0  0  0  0  0
   10.4320  -34.1230  -33.0120 O   0  0  0  0  0  0  0  0  0  0  0  0
    7.0720  -34.1150  -34.1050 C   0  0  0  0  0  0  0  0  0  0  0  0
   10.6020  -30.8270  -26.7000 N   0  0  0  0  0  0  0  0  0  0  0  0
    4.2420  -34.3520  -38.4000 C   0  0  0  0  0  0  0  0  0  0  0  0
    8.2430  -33.6990  -33.3750 C   0  0  0  0  0  0  0  0  0  0  0  0
   12.1820  -32.8840  -29.0110 O   0  0  0  0  0  0  0  0  0  0  0  0
    7.2810  -35.3110  -35.0390 C   0  0  0  0  0  0  0  0  0  0  0  0
  1 15  1  0
  6  4  1  6
  5 27  2  0
  6  8  1  0
  6 11  1  0
  7 34  1  6
  7 22  1  0
  7 10  1  0
  9 35  2  0
  9  5  1  0
 10 31  1  0
 11 32  1  0
 12 26  1  0
 13  1  2  0
 14 12  1  0
 16 20  1  0
 17 15  1  0
 18 23  2  0
 19  3  1  0
 20  2  2  0
 21 14  2  0
 21 24  1  0
 22 19  1  0
 23  2  1  0
 23 28  1  0
 24 26  2  0
 25 13  1  0
 26 34  1  0
 27 33  1  0
 27 29  1  0
 28 35  1  0
 29 14  1  0
 30 25  2  0
 30 33  1  0
 31  3  1  0
 32 16  2  0
 32 18  1  0
 33 17  2  0
 35 30  1  0
M  END
$$$$

     RDKit          3D

 30 33  0  0  0  0  0  0  0  0999 V2000
    3.5380  -34.5890  -37.9920 C   0  0  0  0  0  0  0  0  0  0  0  0
   10.7510  -32.4780  -29.5870 O   0  0  0  0  0  0  0  0  0  0  0  0
    9.2850  -32.9520  -31.5240 C   0  0  0  0  0  0  0  0  0  0  0  0
   13.0190  -34.0430  -31.9750 F   0  0  0  0  0  0  0  0  0  0  0  0
    5.7820  -33.5180  -33.7030 C   0  0  0  0  0  0  0  0  0  0  0  0
   11.7890  -32.5400  -30.6500 C   0  0  0  0  0  0  0  0  0  0  0  0
    6.1550  -34.5560  -34.5700 C   0  0  0  0  0  0  0  0  0  0  0  0
    3.8820  -33.9350  -35.2680 C   0  0  0  0  0  0  0  0  0  0  0  0
    6.8450  -31.7120  -32.1810 C   0  0  0  0  0  0  0  0  0  0  0  0
    2.4790  -34.4320  -38.9520 O   0  0  0  0  0  0  0  0  0  0  0  0
    9.6970  -36.1310  -34.3440 C   0  0  2  0  0  0  0  0  0  0  0  0
    8.6440  -31.8620  -29.7520 O   0  0  0  0  0  0  0  0  0  0  0  0
    4.7880  -34.8080  -35.2910 C   0  0  1  0  0  0  0  0  0  0  0  0
    5.6720  -31.7750  -31.3830 C   0  0  0  0  0  0  0  0  0  0  0  0
    8.6850  -34.2320  -32.8980 C   0  0  0  0  0  0  0  0  0  0  0  0
    4.9200  -33.1570  -33.7240 C   0  0  0  0  0  0  0  0  0  0  0  0
    1.2790  -32.9740  -35.5130 O   0  0  0  0  0  0  0  0  0  0  0  0
   11.8630  -33.8190  -31.1840 C   0  0  1  0  0  0  0  0  0  0  0  0
    5.3500  -34.3720  -36.3520 O   0  0  0  0  0  0  0  0  0  0  0  0
   10.6860  -33.6850  -32.1010 C   0  0  0  0  0  0  0  0  0  0  0  0
    1.6060  -33.9870  -36.5050 C   0  0  0  0  0  0  0  0  0  0  0  0
    8.3250  -33.4220  -32.4280 C   0  0  0  0  0  0  0  0  0  0  0  0
    8.4960  -35.3050  -34.0120 C   0  0  0  0  0  0  0  0  0  0  0  0
   10.1360  -34.6960  -32.9850 N   0  0  0  0  0  0  0  0  0  0  0  0
    9.3820  -32.4590  -30.3320 C   0  0  0  0  0  0  0  0  0  0  0  0
   11.7800  -34.9490  -30.2760 C   0  0  0  0  0  0  0  0  0  0  0  0
   10.9680  -36.3810  -34.2950 C   0  0  0  0  0  0  0  0  0  0  0  0
   11.0040  -35.1710  -33.9750 C   0  0  1  0  0  0  0  0  0  0  0  0
    6.9500  -32.7700  -32.7710 C   0  0  1  0  0  0  0  0  0  0  0  0
    3.1190  -34.1650  -36.4560 C   0  0  0  0  0  0  0  0  0  0  0  0
  1 30  1  0
  3 25  1  0
  4 18  1  0
  5 29  1  0
  6  2  1  0
  7  5  1  0
  9 14  1  0
 10  1  1  0
 11 27  1  1
 11 23  1  0
 11 28  1  0
 13 19  1  6
 13  8  1  0
 13  7  1  0
 15 22  2  0
 16  5  2  0
 18  6  1  0
 18 26  1  1
 20  3  2  0
 20 18  1  0
 21 30  1  0
 21 17  1  0
 22  3  1  0
 23 15  1  0
 24 15  1  0
 24 20  1  0
 25 12  2  0
 25  2  1  0
 28 27  1  1
 28 24  1  0
 29 22  1  0
 29  9  1  1
 30  8  1  0
M  END
$$$$

     RDKit          3D

 25 30  0  0  0  0  0  0  0  0999 V2000
    2.9330  -33.6130  -35.2680 O   0  0  0  0  0  0  0  0  0  0  0  0
    9.4560  -33.3160  -32.0600 C   0  0  0  0  0  0  0  0  0  0  0  0
    6.9120  -32.0430  -32.1010 C   0  0  0  0  0  0  0  0  0  0  0  0
   11.6340  -34.9700  -33.8640 C   0  0  0  0  0  0  0  0  0  0  0  0
    5.4440  -32.0340  -32.5560 C   0  0  1  0  0  0  0  0  0  0  0  0
    9.5940  -35.4750  -34.7350 C   0  0  0  0  0  0  0  0  0  0  0  0
    8.6820  -33.2980  -32.8150 C   0  0  0  0  0  0  0  0  0  0  0  0
    6.0030  -33.2430  -33.7880 C   0  0  0  0  0  0  0  0  0  0  0  0
    7.1950  -35.3310  -34.3140 O   0  0  0  0  0  0  0  0  0  0  0  0
    5.0050  -33.5630  -34.6370 C   0  0  0  0  0  0  0  0  0  0  0  0
    7.9430  -34.5940  -34.0520 C   0  0  0  0  0  0  0  0  0  0  0  0
    9.2700  -32.7930  -31.1780 C   0  0  0  0  0  0  0  0  0  0  0  0
    3.4680  -32.5090  -33.3670 C   0  0  0  0  0  0  0  0  0  0  0  0
    7.2340  -33.7320  -33.3810 C   0  0  0  0  0  0  0  0  0  0  0  0
   12.1700  -33.9610  -31.8420 C   0  0  0  0  0  0  0  0  0  0  0  0
    9.1390  -34.7860  -33.9980 C   0  0  0  0  0  0  0  0  0  0  0  0
    3.8110  -33.2950  -34.4070 C   0  0  0  0  0  0  0  0  0  0  0  0
   10.3230  -33.0540  -30.8780 C   0  0  0  0  0  0  0  0  0  0  0  0
   10.9660  -35.8580  -34.7110 C   0  0  0  0  0  0  0  0  0  0  0  0
   11.5360  -33.4040  -30.6710 C   0  0  0  0  0  0  0  0  0  0  0  0
    4.3880  -31.9580  -32.4870 C   0  0  0  0  0  0  0  0  0  0  0  0
   12.4280  -33.4560  -29.6060 O   0  0  0  0  0  0  0  0  0  0  0  0
    9.7410  -33.9640  -33.0010 C   0  0  2  0  0  0  0  0  0  0  0  0
    7.9940  -32.7830  -32.6910 C   0  0  0  0  0  0  0  0  0  0  0  0
   11.2020  -34.2270  -32.7790 C   0  0  0  0  0  0  0  0  0  0  0  0
  1 17  2  0
  2 12  1  0
  5 21  1  1
  5  3  1  0
  6 19  1  0
  6 16  2  0
  7 24  1  0
  7  2  2  0
  8 14  2  0
  8  5  1  0
  9 11  2  0
 10 17  1  0
 10  8  1  0
 11 16  1  0
 11 14  1  0
 12 18  1  0
 13 21  2  0
 14 24  1  0
 15 20  1  0
 17 13  1  0
 18 20  1  0
 19  4  1  0
 20 22  1  0
 23 16  1  0
 23  7  1  0
 23 25  1  6
 23  2  1  0
 24  3  2  0
 25  4  1  0
 25 15  1  0
M  END
$$$$

     RDKit          3D

 26 30  0  0  0  0  0  0  0  0999 V2000
    2.5560  -34.5270  -37.4160 C   0  0  0  0  0  0  0  0  0  0  0  0
    9.6860  -34.5520  -31.1240 O   0  0  0  0  0  0  0  0  0  0  0  0
    6.9090  -33.6840  -33.5330 C   0  0  0  0  0  0  0  0  0  0  0  0
    6.2710  -32.0500  -31.9660 C   0  0  0  0  0  0  0  0  0  0  0  0
    4.3720  -33.8290  -34.5790 N   0  0  0  0  0  0  0  0  0  0  0  0
   13.1790  -34.3960  -33.5930 O   0  0  0  0  0  0  0  0  0  0  0  0
    7.6010  -32.0350  -31.6080 C   0  0  0  0  0  0  0  0  0  0  0  0
   10.1790  -33.1100  -30.2800 C   0  0  0  0  0  0  0  0  0  0  0  0
   11.6210  -34.1340  -31.7840 C   0  0  1  0  0  0  0  0  0  0  0  0
   11.3840  -35.8150  -33.8840 C   0  0  0  0  0  0  0  0  0  0  0  0
    5.9180  -32.9210  -33.0130 C   0  0  0  0  0  0  0  0  0  0  0  0
   12.3940  -33.0350  -31.1280 C   0  0  0  0  0  0  0  0  0  0  0  0
    4.4850  -33.0110  -33.5710 C   0  0  0  0  0  0  0  0  0  0  0  0
   10.0360  -32.3840  -32.2860 C   0  0  0  0  0  0  0  0  0  0  0  0
    8.6750  -32.8120  -32.2530 C   0  0  0  0  0  0  0  0  0  0  0  0
    3.4240  -35.0830  -36.3740 C   0  0  0  0  0  0  0  0  0  0  0  0
   11.5900  -33.1440  -29.8610 C   0  0  0  0  0  0  0  0  0  0  0  0
    9.1600  -34.5740  -33.9810 C   0  0  0  0  0  0  0  0  0  0  0  0
   10.5470  -34.5570  -34.0780 C   0  0  1  0  0  0  0  0  0  0  0  0
   10.1900  -33.6690  -31.7130 C   0  0  1  0  0  0  0  0  0  0  0  0
   11.8270  -34.4380  -33.2920 C   0  0  2  0  0  0  0  0  0  0  0  0
    1.4590  -33.8580  -36.6800 C   0  0  0  0  0  0  0  0  0  0  0  0
    3.6290  -32.4160  -33.0670 O   0  0  0  0  0  0  0  0  0  0  0  0
    2.2030  -33.1040  -35.5770 C   0  0  0  0  0  0  0  0  0  0  0  0
    3.1690  -34.1920  -35.2030 N   0  0  0  0  0  0  0  0  0  0  0  0
    8.1740  -33.6610  -33.2830 C   0  0  0  0  0  0  0  0  0  0  0  0
  1 22  1  0
  1 16  1  0
  3 26  2  0
  3 11  1  0
  4  7  1  0
  5 13  1  0
  8 17  1  0
  9 20  1  0
  9 12  1  6
 10 21  1  0
 11  4  2  0
 12 17  1  0
 13 23  2  0
 13 11  1  0
 14 15  1  0
 14 20  1  0
 15  7  2  0
 16 25  1  0
 18 26  1  0
 19 18  1  1
 19 10  1  0
 19 21  1  0
 20  2  1  6
 20  8  1  0
 21  6  1  6
 21  9  1  0
 22 24  1  0
 24 25  1  0
 25  5  1  0
 26 15  1  0
M  END
$$$$

     RDKit          3D

 23 27  0  0  0  0  0  0  0  0999 V2000
   10.2620  -34.5860  -32.5270 C   0  0  0  0  0  0  0  0  0  0  0  0
    3.9400  -34.2800  -35.4370 N   0  0  0  0  0  0  0  0  0  0  0  0
    2.5800  -34.4310  -37.3640 C   0  0  0  0  0  0  0  0  0  0  0  0
    5.9020  -34.5950  -34.9430 C   0  0  0  0  0  0  0  0  0  0  0  0
    9.1750  -33.0280  -31.4210 N   0  0  0  0  0  0  0  0  0  0  0  0
    4.9680  -34.8150  -35.8120 C   0  0  0  0  0  0  0  0  0  0  0  0
    9.1500  -33.8360  -32.4500 C   0  0  0  0  0  0  0  0  0  0  0  0
    9.9830  -32.7480  -30.4230 C   0  0  0  0  0  0  0  0  0  0  0  0
    5.8290  -33.7020  -33.8690 C   0  0  0  0  0  0  0  0  0  0  0  0
    3.7100  -33.7330  -37.7650 C   0  0  2  0  0  0  0  0  0  0  0  0
   11.2010  -33.5500  -30.5430 C   0  0  0  0  0  0  0  0  0  0  0  0
    4.6040  -33.1480  -33.4880 C   0  0  0  0  0  0  0  0  0  0  0  0
   12.1770  -33.3170  -29.6170 O   0  0  0  0  0  0  0  0  0  0  0  0
    7.1240  -35.2590  -35.0470 C   0  0  0  0  0  0  0  0  0  0  0  0
   10.4480  -35.4560  -33.5980 C   0  0  0  0  0  0  0  0  0  0  0  0
    5.0210  -33.8340  -37.0140 C   0  0  0  0  0  0  0  0  0  0  0  0
   11.1900  -34.4030  -31.6060 C   0  0  0  0  0  0  0  0  0  0  0  0
    2.5940  -32.9640  -37.1730 C   0  0  0  0  0  0  0  0  0  0  0  0
    3.4020  -33.4260  -34.5690 C   0  0  0  0  0  0  0  0  0  0  0  0
    9.3050  -35.9020  -34.3010 C   0  0  0  0  0  0  0  0  0  0  0  0
    8.1830  -35.1190  -34.2340 C   0  0  0  0  0  0  0  0  0  0  0  0
    8.1040  -34.0640  -33.2350 C   0  0  0  0  0  0  0  0  0  0  0  0
    6.8610  -33.2740  -33.1150 C   0  0  0  0  0  0  0  0  0  0  0  0
  1  7  2  0
  1 17  1  0
  2 19  2  0
  3 18  1  0
  4  9  1  0
  5  8  2  0
  6  2  1  0
  6  4  2  0
  7  5  1  0
  9 12  2  0
  9 23  1  0
 10  3  1  0
 10 18  1  0
 10 16  1  1
 11  8  1  0
 11 13  1  0
 14  4  1  0
 14 21  2  0
 15  1  1  0
 16  6  1  0
 17 11  2  0
 19 12  1  0
 20 21  1  0
 20 15  2  0
 21 22  1  0
 22 23  2  0
 22  7  1  0
M  END
$$$$

     RDKit          3D

 30 35  0  0  0  0  0  0  0  0999 V2000
    4.7550  -33.3120  -34.0870 N   0  0  0  0  0  0  0  0  0  0  0  0
    7.5660  -32.4530  -32.1230 C   0  0  2  0  0  0  0  0  0  0  0  0
   11.5030  -34.5550  -30.1130 C   0  0  0  0  0  0  0  0  0  0  0  0
   12.3790  -33.0090  -31.5500 C   0  0  0  0  0  0  0  0  0  0  0  0
   10.3990  -33.8360  -32.6290 C   0  0  2  0  0  0  0  0  0  0  0  0
    2.7370  -35.7350  -37.2560 C   0  0  0  0  0  0  0  0  0  0  0  0
    9.8770  -31.6670  -29.1570 C   0  0  0  0  0  0  0  0  0  0  0  0
    8.7460  -31.7710  -29.9340 C   0  0  0  0  0  0  0  0  0  0  0  0
    8.7380  -32.5480  -31.2540 C   0  0  0  0  0  0  0  0  0  0  0  0
   11.1830  -33.1610  -30.7090 C   0  0  1  0  0  0  0  0  0  0  0  0
    5.6730  -35.7730  -36.7870 C   0  0  0  0  0  0  0  0  0  0  0  0
    5.5750  -32.7910  -33.1090 C   0  0  0  0  0  0  0  0  0  0  0  0
    7.1670  -34.2360  -33.8230 C   0  0  0  0  0  0  0  0  0  0  0  0
    2.8820  -36.9320  -36.8670 O   0  0  0  0  0  0  0  0  0  0  0  0
    5.2000  -31.8650  -32.0150 C   0  0  0  0  0  0  0  0  0  0  0  0
   11.7980  -33.6250  -32.7200 C   0  0  0  0  0  0  0  0  0  0  0  0
    4.6550  -34.8460  -36.3370 C   0  0  1  0  0  0  0  0  0  0  0  0
    3.4210  -34.6560  -36.8140 O   0  0  0  0  0  0  0  0  0  0  0  0
    9.9350  -33.1980  -31.5500 C   0  0  0  0  0  0  0  0  0  0  0  0
    8.2140  -34.4660  -33.2720 N   0  0  0  0  0  0  0  0  0  0  0  0
   12.1490  -32.3450  -28.7720 O   0  0  0  0  0  0  0  0  0  0  0  0
    6.4930  -34.7430  -34.9230 C   0  0  0  0  0  0  0  0  0  0  0  0
    5.1870  -34.2470  -35.0870 C   0  0  0  0  0  0  0  0  0  0  0  0
    6.6280  -31.5030  -31.6280 C   0  0  0  0  0  0  0  0  0  0  0  0
    9.6220  -34.7030  -33.4300 C   0  0  0  0  0  0  0  0  0  0  0  0
    6.7870  -33.2090  -33.0780 C   0  0  0  0  0  0  0  0  0  0  0  0
    1.8590  -35.3730  -38.1190 O   0  0  0  0  0  0  0  0  0  0  0  0
    6.6560  -35.8360  -35.7220 C   0  0  0  0  0  0  0  0  0  0  0  0
    9.9590  -35.7620  -34.1940 O   0  0  0  0  0  0  0  0  0  0  0  0
   11.0210  -32.3630  -29.4270 C   0  0  0  0  0  0  0  0  0  0  0  0
  1 12  2  0
  2 24  1  1
  2  9  1  0
  4 10  1  0
  5 16  1  1
  5 19  1  0
  6 14  1  0
  6 18  1  0
  8  7  1  0
  9  8  1  0
 10  3  1  1
 10 30  1  0
 11 17  1  0
 11 28  1  0
 12 26  1  0
 12 15  1  0
 13 20  1  0
 13 26  2  0
 15 24  1  0
 16  4  1  0
 17 18  1  1
 17 23  1  0
 19  9  2  0
 19 10  1  0
 22 13  1  0
 23 22  2  0
 23  1  1  0
 25 20  1  0
 25  5  1  0
 26  2  1  0
 27  6  2  0
 28 22  1  0
 29 25  2  0
 30  7  2  0
 30 21  1  0
M  END
$$$$

     RDKit          3D

 26 29  0  0  0  0  0  0  0  0999 V2000
    7.4930  -31.4890  -31.0200 C   0  0  0  0  0  0  0  0  0  0  0  0
    8.3600  -32.3990  -31.6000 C   0  0  0  0  0  0  0  0  0  0  0  0
    6.0780  -34.0060  -34.0600 C   0  0  0  0  0  0  0  0  0  0  0  0
    9.4430  -35.5610  -34.5920 C   0  0  0  0  0  0  0  0  0  0  0  0
    8.3270  -34.8040  -34.2650 C   0  0  0  0  0  0  0  0  0  0  0  0
   10.4200  -35.2060  -33.7800 N   0  0  0  0  0  0  0  0  0  0  0  0
    8.6700  -34.0570  -33.2260 C   0  0  0  0  0  0  0  0  0  0  0  0
    4.7260  -34.2820  -34.3650 C   0  0  0  0  0  0  0  0  0  0  0  0
    5.6730  -34.6600  -37.6050 F   0  0  0  0  0  0  0  0  0  0  0  0
   10.4780  -33.5060  -31.8220 C   0  0  0  0  0  0  0  0  0  0  0  0
    7.8830  -33.1530  -32.6800 C   0  0  0  0  0  0  0  0  0  0  0  0
    3.9400  -34.1670  -39.0260 F   0  0  0  0  0  0  0  0  0  0  0  0
   11.2850  -32.8590  -29.6940 C   0  0  2  0  0  0  0  0  0  0  0  0
    6.9810  -34.7440  -34.5650 C   0  0  0  0  0  0  0  0  0  0  0  0
    9.5760  -32.7030  -31.1300 C   0  0  0  0  0  0  0  0  0  0  0  0
    3.8130  -34.1550  -36.5420 C   0  0  0  0  0  0  0  0  0  0  0  0
    3.8370  -33.6830  -33.6850 O   0  0  0  0  0  0  0  0  0  0  0  0
    9.9590  -34.2390  -32.9140 C   0  0  0  0  0  0  0  0  0  0  0  0
   12.8090  -32.6250  -27.6880 C   0  0  0  0  0  0  0  0  0  0  0  0
   11.9050  -32.4180  -28.5920 N   0  0  0  0  0  0  0  0  0  0  0  0
    4.1100  -34.8400  -37.8770 C   0  0  2  0  0  0  0  0  0  0  0  0
    6.5430  -32.9930  -33.0450 C   0  0  0  0  0  0  0  0  0  0  0  0
    4.4650  -34.8880  -35.5250 N   0  0  0  0  0  0  0  0  0  0  0  0
   11.9180  -33.6440  -30.9280 S   0  0  0  0  0  0  0  0  0  0  0  0
   13.8480  -32.6770  -26.7550 C   0  0  0  0  0  0  0  0  0  0  0  0
   10.0180  -32.4660  -29.8510 O   0  0  0  0  0  0  0  0  0  0  0  0
  2 15  2  0
  2  1  1  0
  3 22  2  0
  4  5  1  0
  4  6  2  0
  5  7  1  0
  6 18  1  0
  7 18  1  0
  7 11  2  0
  8  3  1  0
  8 17  2  0
 10 15  1  0
 10 24  1  0
 11  2  1  0
 21 12  1  6
 13 20  1  6
 14  5  2  0
 14  3  1  0
 15 26  1  0
 16 23  1  0
 18 10  2  0
 19 25  1  0
 20 19  1  0
 21  9  1  0
 21 16  1  0
 22 11  1  0
 23  8  1  0
 24 13  1  0
 26 13  1  0
M  END
$$$$

     RDKit          3D

 38 44  0  0  0  0  0  0  0  0999 V2000
    9.6950  -33.6900  -31.9640 C   0  0  0  0  0  0  0  0  0  0  0  0
    9.7390  -34.5370  -32.9610 N   0  0  0  0  0  0  0  0  0  0  0  0
    3.8110  -34.5810  -35.7650 C   0  0  1  0  0  0  0  0  0  0  0  0
    4.5550  -31.6240  -30.1560 F   0  0  0  0  0  0  0  0  0  0  0  0
   12.0740  -33.5320  -31.4340 C   0  0  1  0  0  0  0  0  0  0  0  0
   14.0190  -33.6000  -33.2570 C   0  0  0  0  0  0  0  0  0  0  0  0
   11.7420  -33.8250  -33.7170 C   0  0  0  0  0  0  0  0  0  0  0  0
    7.3380  -36.2330  -35.0030 C   0  0  0  0  0  0  0  0  0  0  0  0
    6.1240  -32.7850  -33.0370 C   0  0  0  0  0  0  0  0  0  0  0  0
   10.8050  -33.6560  -31.3450 C   0  0  0  0  0  0  0  0  0  0  0  0
    8.6620  -35.1680  -33.3080 C   0  0  0  0  0  0  0  0  0  0  0  0
    3.0890  -33.2090  -35.1310 C   0  0  0  0  0  0  0  0  0  0  0  0
    1.6460  -35.2460  -36.2670 O   0  0  0  0  0  0  0  0  0  0  0  0
    8.5840  -35.7550  -34.4520 C   0  0  0  0  0  0  0  0  0  0  0  0
    7.2820  -33.1010  -33.0950 C   0  0  0  0  0  0  0  0  0  0  0  0
    9.5410  -35.4940  -34.8350 C   0  0  0  0  0  0  0  0  0  0  0  0
    8.2510  -32.9310  -32.0750 C   0  0  0  0  0  0  0  0  0  0  0  0
    3.7910  -34.0310  -37.1090 C   0  0  2  0  0  0  0  0  0  0  0  0
    5.0750  -35.3190  -35.3180 C   0  0  0  0  0  0  0  0  0  0  0  0
    3.2780  -33.5180  -40.3760 C   0  0  0  0  0  0  0  0  0  0  0  0
    5.5170  -31.9080  -30.9540 C   0  0  0  0  0  0  0  0  0  0  0  0
    2.4700  -31.5070  -32.2460 C   0  0  0  0  0  0  0  0  0  0  0  0
   10.5800  -34.7070  -33.8160 C   0  0  0  0  0  0  0  0  0  0  0  0
   13.0780  -33.3420  -29.3730 C   0  0  0  0  0  0  0  0  0  0  0  0
   10.6960  -33.8420  -29.2410 O   0  0  0  0  0  0  0  0  0  0  0  0
    3.5380  -32.8360  -34.0710 C   0  0  0  0  0  0  0  0  0  0  0  0
   11.4830  -33.7930  -30.1920 C   0  0  1  0  0  0  0  0  0  0  0  0
   12.5830  -33.5990  -32.6740 C   0  0  1  0  0  0  0  0  0  0  0  0
    4.6310  -33.5560  -39.6270 C   0  0  0  0  0  0  0  0  0  0  0  0
    3.7810  -32.0930  -32.8170 C   0  0  0  0  0  0  0  0  0  0  0  0
    6.9650  -31.7500  -30.3920 C   0  0  0  0  0  0  0  0  0  0  0  0
    6.1040  -35.3500  -35.7710 C   0  0  0  0  0  0  0  0  0  0  0  0
    2.8550  -35.2570  -36.7110 C   0  0  1  0  0  0  0  0  0  0  0  0
    8.1190  -31.7680  -31.0900 C   0  0  0  0  0  0  0  0  0  0  0  0
    2.8380  -36.5380  -37.0660 O   0  0  0  0  0  0  0  0  0  0  0  0
   13.5930  -33.0110  -30.7200 N   0  0  0  0  0  0  0  0  0  0  0  0
    4.6060  -34.1740  -38.2870 C   0  0  0  0  0  0  0  0  0  0  0  0
    5.0890  -32.1990  -32.2820 C   0  0  2  0  0  0  0  0  0  0  0  0
  2  1  1  0
  3 19  1  0
  3 12  1  1
  5 10  1  0
  5 36  1  1
  5 27  1  0
  7 28  1  0
  8 14  1  0
 10  1  1  0
 10 27  1  0
 11  2  1  0
 12 26  2  0
 14 11  2  0
 15  9  2  0
 15 17  1  0
 16 14  1  0
 16 23  2  0
 17  1  2  3
 17 34  1  0
 18 37  1  6
 18 33  1  0
 18  3  1  0
 20 29  1  0
 21 31  2  0
 21  4  1  0
 23  7  1  0
 23  2  1  0
 26 30  2  0
 27 24  1  0
 27 25  1  6
 28  6  1  1
 28  5  1  0
 29 37  1  0
 38 30  1  1
 30 22  1  0
 32 19  2  3
 32  8  1  0
 33 13  1  1
 33  3  1  0
 34 31  1  0
 35 33  1  0
 36 24  1  0
 38  9  1  0
 38 21  1  0
M  END
$$$$

     RDKit          3D

 16 16  0  0  0  0  0  0  0  0999 V2000
    8.3760  -34.1280  -33.0170 C   0  0  0  0  0  0  0  0  0  0  0  0
    8.5130  -35.2670  -33.6940 C   0  0  0  0  0  0  0  0  0  0  0  0
   11.0750  -33.5960  -31.0570 C   0  0  0  0  0  0  0  0  0  0  0  0
    4.1000  -34.2430  -35.7350 C   0  0  0  0  0  0  0  0  0  0  0  0
    7.3380  -33.3080  -32.9070 C   0  0  0  0  0  0  0  0  0  0  0  0
   10.5750  -34.6620  -32.4020 N   0  0  0  0  0  0  0  0  0  0  0  0
    5.0140  -32.1970  -32.6840 N   0  0  0  0  0  0  0  0  0  0  0  0
    9.7190  -33.2740  -31.3520 C   0  0  0  0  0  0  0  0  0  0  0  0
    5.3340  -35.0150  -35.4250 C   0  0  0  0  0  0  0  0  0  0  0  0
    6.5030  -34.8780  -34.5980 C   0  0  0  0  0  0  0  0  0  0  0  0
    9.3890  -34.1460  -32.6380 C   0  0  0  0  0  0  0  0  0  0  0  0
    6.4020  -33.7370  -33.7100 C   0  0  0  0  0  0  0  0  0  0  0  0
   10.8220  -34.2390  -31.7340 N   0  0  0  0  0  0  0  0  0  0  0  0
    5.4760  -33.1220  -33.5790 C   0  0  0  0  0  0  0  0  0  0  0  0
    7.5320  -35.5610  -34.4760 C   0  0  0  0  0  0  0  0  0  0  0  0
    5.5830  -35.5960  -35.7420 O   0  0  0  0  0  0  0  0  0  0  0  0
  1  5  2  0
  1 11  1  0
  2  1  1  0
  4  9  1  0
  6 13  1  0
  8  3  1  0
  9 10  1  0
 10 15  1  0
 10 12  2  0
 11  6  1  0
 12 14  1  0
 12  5  1  0
 13  3  1  0
 14  7  1  0
 15  2  2  0
 16  9  2  0
M  END
$$$$

     RDKit          3D

 22 25  0  0  0  0  0  0  0  0999 V2000
    4.4890  -33.1350  -33.9700 O   0  0  0  0  0  0  0  0  0  0  0  0
    7.0680  -34.2370  -33.9600 C   0  0  0  0  0  0  0  0  0  0  0  0
    8.5760  -32.3380  -31.2530 C   0  0  0  0  0  0  0  0  0  0  0  0
    7.2750  -31.8730  -31.2290 C   0  0  0  0  0  0  0  0  0  0  0  0
    6.0430  -32.6150  -32.5930 C   0  0  0  0  0  0  0  0  0  0  0  0
    5.9190  -35.3560  -35.6140 C   0  0  0  0  0  0  0  0  0  0  0  0
    6.2450  -31.9480  -31.5940 C   0  0  0  0  0  0  0  0  0  0  0  0
    8.0990  -35.8950  -35.0390 C   0  0  0  0  0  0  0  0  0  0  0  0
    8.1040  -34.9570  -34.3010 N   0  0  0  0  0  0  0  0  0  0  0  0
    9.8600  -33.4040  -32.9420 C   0  0  2  0  0  0  0  0  0  0  0  0
    7.0150  -33.2190  -33.2100 C   0  0  0  0  0  0  0  0  0  0  0  0
    8.3870  -33.1970  -32.5950 C   0  0  0  0  0  0  0  0  0  0  0  0
    9.8970  -35.2990  -33.4160 C   0  0  0  0  0  0  0  0  0  0  0  0
   11.1120  -33.0860  -31.1000 C   0  0  0  0  0  0  0  0  0  0  0  0
    4.8230  -35.5420  -36.0220 O   0  0  0  0  0  0  0  0  0  0  0  0
   10.2580  -32.5610  -30.4190 C   0  0  0  0  0  0  0  0  0  0  0  0
   10.4340  -34.4160  -34.1610 C   0  0  0  0  0  0  0  0  0  0  0  0
    4.9660  -33.9180  -34.5860 C   0  0  0  0  0  0  0  0  0  0  0  0
    6.9340  -36.0110  -35.8220 C   0  0  0  0  0  0  0  0  0  0  0  0
    5.9440  -34.4320  -34.7130 C   0  0  0  0  0  0  0  0  0  0  0  0
    3.9020  -34.8400  -35.6420 C   0  0  0  0  0  0  0  0  0  0  0  0
   11.0680  -33.1840  -32.4670 C   0  0  0  0  0  0  0  0  0  0  0  0
  2 11  1  0
  3  4  2  0
  3 16  1  0
  5  7  2  0
  6 20  1  0
  7  4  1  0
  8  9  2  0
  9  2  1  0
 10 17  1  1
 10 12  1  0
 10 22  1  0
 11 12  2  0
 11  5  1  0
 12  3  1  0
 14 16  1  0
 15 21  1  0
 15  6  1  0
 17 13  1  0
 18  1  2  0
 19  6  2  0
 19  8  1  0
 20 18  1  0
 20  2  2  0
 21 18  1  0
 22 14  1  0
M  END
$$$$

     RDKit          3D

 31 42  0  0  0  0  0  0  0  0999 V2000
    7.3000  -35.1870  -34.1570 C   0  0  2  0  0  0  0  0  0  0  0  0
    6.1120  -32.2880  -32.7540 C   0  0  1  0  0  0  0  0  0  0  0  0
   10.5220  -34.5540  -32.9460 C   0  0  2  0  0  0  0  0  0  0  0  0
    4.2490  -34.3040  -35.0530 C   0  0  0  0  0  0  0  0  0  0  0  0
    6.7150  -32.6850  -33.0870 C   0  0  0  0  0  0  0  0  0  0  0  0
    7.8450  -32.0230  -31.1750 C   0  0  0  0  0  0  0  0  0  0  0  0
    6.5050  -35.0430  -34.6660 C   0  0  0  0  0  0  0  0  0  0  0  0
    8.5250  -35.6840  -34.0870 C   0  0  2  0  0  0  0  0  0  0  0  0
    9.8470  -35.3780  -33.5390 C   0  0  0  0  0  0  0  0  0  0  0  0
    6.1060  -35.4310  -35.4070 N   0  0  0  0  0  0  0  0  0  0  0  0
    4.9230  -35.2840  -35.7860 C   0  0  0  0  0  0  0  0  0  0  0  0
    8.0510  -33.2700  -33.1000 S   0  0  2  0  0  0  0  0  0  0  0  0
   10.8650  -36.2880  -33.7580 C   0  0  1  0  0  0  0  0  0  0  0  0
    9.4150  -36.9050  -33.9710 C   0  0  0  0  0  0  0  0  0  0  0  0
    3.2560  -33.1520  -33.2300 O   0  0  0  0  0  0  0  0  0  0  0  0
    6.3990  -34.2420  -33.9490 C   0  0  0  0  0  0  0  0  0  0  0  0
   11.2320  -33.4450  -31.9020 C   0  0  1  0  0  0  0  0  0  0  0  0
   11.5790  -33.6520  -32.5390 S   0  0  0  0  0  0  0  0  0  0  0  0
    5.5600  -32.7780  -32.8310 O   0  0  0  0  0  0  0  0  0  0  0  0
    9.5550  -32.7420  -31.9980 C   0  0  1  0  0  0  0  0  0  0  0  0
   10.4700  -33.6840  -30.5880 C   0  0  2  0  0  0  0  0  0  0  0  0
    4.5510  -33.6670  -33.9660 C   0  0  2  0  0  0  0  0  0  0  0  0
   11.1800  -35.0380  -33.6960 C   0  0  2  0  0  0  0  0  0  0  0  0
    9.2580  -33.7540  -32.7060 C   0  0  2  0  0  0  0  0  0  0  0  0
    7.3200  -31.8270  -32.4930 C   0  0  1  0  0  0  0  0  0  0  0  0
    9.2780  -33.0360  -30.7130 C   0  0  0  0  0  0  0  0  0  0  0  0
   10.6580  -35.6150  -33.1000 C   0  0  2  0  0  0  0  0  0  0  0  0
   11.6540  -33.0060  -30.7190 C   0  0  0  0  0  0  0  0  0  0  0  0
   10.0550  -33.6160  -32.0110 C   0  0  2  0  0  0  0  0  0  0  0  0
    5.8440  -33.3990  -33.7110 C   0  0  2  0  0  0  0  0  0  0  0  0
    8.1970  -34.3420  -33.5060 C   0  0  1  0  0  0  0  0  0  0  0  0
  1  7  1  1
  1  8  1  0
  1 16  1  0
  1 31  1  0
  2  5  1  6
  2 25  1  0
  3  9  1  6
  3 29  1  0
  4 22  1  0
  7 16  2  0
  8 14  1  1
  8 31  1  0
 27  9  1  6
 10  7  1  0
 11 10  1  0
 11  4  1  0
 24 12  1  1
 12 25  1  0
 23 13  1  6
 13 27  1  0
 13 14  1  6
 16 30  1  0
 17 28  1  0
 17 21  1  0
 17 18  1  6
 19  2  1  0
 20 26  1  1
 22 30  1  0
 22 15  1  6
 23 27  1  0
 23  3  1  0
 24 29  1  0
 24 20  1  0
 25  6  1  1
 21 26  1  6
 27  3  1  0
 28 21  1  0
 29 20  1  0
 29 17  1  1
 30 19  1  1
 31 12  1  6
 31 24  1  0
M  END
$$$$

     RDKit          3D

 38 45  0  0  0  0  0  0  0  0999 V2000
    7.7350  -34.7160  -34.1850 C   0  0  0  0  0  0  0  0  0  0  0  0
    4.6330  -34.9670  -35.1420 O   0  0  0  0  0  0  0  0  0  0  0  0
    4.8860  -33.4100  -33.5000 C   0  0  0  0  0  0  0  0  0  0  0  0
    6.6290  -34.9830  -34.6180 C   0  0  0  0  0  0  0  0  0  0  0  0
   10.6800  -32.7140  -27.3680 C   0  0  0  0  0  0  0  0  0  0  0  0
    6.7690  -36.1120  -35.4410 N   0  0  0  0  0  0  0  0  0  0  0  0
    8.0290  -36.3350  -35.2190 C   0  0  0  0  0  0  0  0  0  0  0  0
    9.7510  -32.6540  -30.0350 C   0  0  0  0  0  0  0  0  0  0  0  0
   11.6100  -32.2400  -26.6450 O   0  0  0  0  0  0  0  0  0  0  0  0
   12.1170  -33.4250  -30.3250 C   0  0  0  0  0  0  0  0  0  0  0  0
   10.8310  -33.2880  -30.9160 C   0  0  0  0  0  0  0  0  0  0  0  0
    4.8140  -33.4770  -39.5250 C   0  0  0  0  0  0  0  0  0  0  0  0
    5.1350  -31.5920  -31.5920 C   0  0  0  0  0  0  0  0  0  0  0  0
   10.4560  -32.3650  -28.8220 C   0  0  2  0  0  0  0  0  0  0  0  0
    6.9210  -32.7150  -32.7780 C   0  0  0  0  0  0  0  0  0  0  0  0
    3.6530  -33.2540  -33.4160 O   0  0  0  0  0  0  0  0  0  0  0  0
   11.6250  -31.6450  -29.0950 O   0  0  0  0  0  0  0  0  0  0  0  0
    9.0030  -33.2220  -33.4260 N   0  0  0  0  0  0  0  0  0  0  0  0
    6.3890  -30.9270  -31.3440 C   0  0  0  0  0  0  0  0  0  0  0  0
   13.3510  -33.0540  -28.3220 O   0  0  0  0  0  0  0  0  0  0  0  0
    4.1220  -33.7220  -38.2980 C   0  0  1  0  0  0  0  0  0  0  0  0
   10.9310  -33.8670  -32.1090 C   0  0  1  0  0  0  0  0  0  0  0  0
    4.5320  -33.7690  -37.0180 C   0  0  2  0  0  0  0  0  0  0  0  0
   10.0760  -34.0080  -33.1290 C   0  0  1  0  0  0  0  0  0  0  0  0
   12.9380  -33.9910  -31.1860 N   0  0  0  0  0  0  0  0  0  0  0  0
   12.2620  -34.1100  -32.2590 C   0  0  0  0  0  0  0  0  0  0  0  0
   10.7440  -35.6440  -34.6940 O   0  0  0  0  0  0  0  0  0  0  0  0
   12.7900  -34.4000  -33.3780 O   0  0  0  0  0  0  0  0  0  0  0  0
    7.5020  -31.7080  -31.9760 C   0  0  0  0  0  0  0  0  0  0  0  0
    9.9690  -35.1220  -34.0760 C   0  0  0  0  0  0  0  0  0  0  0  0
    8.6970  -35.5250  -34.4750 C   0  0  1  0  0  0  0  0  0  0  0  0
    5.5950  -32.5200  -32.7450 C   0  0  1  0  0  0  0  0  0  0  0  0
    4.4800  -35.0630  -37.6800 C   0  0  0  0  0  0  0  0  0  0  0  0
   12.3960  -32.7860  -29.1210 C   0  0  0  0  0  0  0  0  0  0  0  0
    3.7650  -34.3860  -35.9220 C   0  0  0  0  0  0  0  0  0  0  0  0
    7.9400  -33.4800  -33.3250 C   0  0  2  0  0  0  0  0  0  0  0  0
    3.2660  -33.7810  -39.4930 C   0  0  0  0  0  0  0  0  0  0  0  0
    5.4220  -34.5060  -34.2550 N   0  0  0  0  0  0  0  0  0  0  0  0
  2 38  1  0
  3 16  2  0
  3 32  1  0
  4 38  1  0
  4  1  2  0
  5  9  2  0
  6  7  2  0
  6  4  1  0
  8 14  1  0
 10 34  1  0
 11 10  2  0
 11  8  1  0
 12 37  1  0
 21 12  1  6
 13 19  1  0
 14  5  1  6
 15 32  1  0
 15 29  1  0
 17 14  1  0
 36 18  1  6
 24 18  1  1
 21 33  1  0
 21 23  1  0
 22 26  1  6
 22 11  1  0
 23 35  1  1
 24 30  1  0
 24 22  1  0
 25 10  1  0
 26 25  1  0
 27 30  2  0
 28 26  2  0
 29 19  1  0
 31  7  1  6
 31  1  1  0
 31 30  1  0
 32 13  1  1
 33 23  1  0
 34 17  1  0
 34 20  2  0
 35  2  1  0
 36  1  1  0
 36 15  1  0
 37 21  1  0
 38  3  1  0
M  END
$$$$

     RDKit          3D

 27 30  0  0  0  0  0  0  0  0999 V2000
    7.1060  -31.6190  -31.8350 C   0  0  0  0  0  0  0  0  0  0  0  0
   11.8860  -33.4130  -30.7330 C   0  0  0  0  0  0  0  0  0  0  0  0
   11.6140  -36.6050  -34.1090 O   0  0  0  0  0  0  0  0  0  0  0  0
    7.9850  -33.4860  -32.6210 C   0  0  0  0  0  0  0  0  0  0  0  0
    6.1230  -30.7670  -31.5470 O   0  0  0  0  0  0  0  0  0  0  0  0
    8.8940  -33.0420  -31.7980 N   0  0  0  0  0  0  0  0  0  0  0  0
    8.3320  -31.8120  -31.2230 C   0  0  0  0  0  0  0  0  0  0  0  0
   10.2220  -33.5550  -32.4870 C   0  0  1  0  0  0  0  0  0  0  0  0
   13.1810  -33.3120  -28.7120 C   0  0  0  0  0  0  0  0  0  0  0  0
    5.9520  -32.9140  -33.6490 C   0  0  0  0  0  0  0  0  0  0  0  0
    7.2780  -34.9520  -34.3260 C   0  0  0  0  0  0  0  0  0  0  0  0
   11.8170  -35.5970  -34.2430 C   0  0  0  0  0  0  0  0  0  0  0  0
   11.6990  -33.6350  -32.2590 C   0  0  0  0  0  0  0  0  0  0  0  0
   10.9050  -32.9420  -30.1130 C   0  0  0  0  0  0  0  0  0  0  0  0
   12.0980  -33.1010  -28.0850 N   0  0  0  0  0  0  0  0  0  0  0  0
    6.2210  -34.2170  -34.6270 C   0  0  0  0  0  0  0  0  0  0  0  0
   14.1040  -34.0170  -32.9740 O   0  0  0  0  0  0  0  0  0  0  0  0
    6.9920  -32.6350  -32.7160 C   0  0  0  0  0  0  0  0  0  0  0  0
    9.9970  -34.4910  -34.3040 O   0  0  0  0  0  0  0  0  0  0  0  0
   11.0170  -32.8440  -28.7810 C   0  0  0  0  0  0  0  0  0  0  0  0
   13.1440  -33.6770  -32.7130 C   0  0  0  0  0  0  0  0  0  0  0  0
   10.3120  -37.1720  -34.0440 C   0  0  0  0  0  0  0  0  0  0  0  0
   10.5340  -38.3020  -33.5910 O   0  0  0  0  0  0  0  0  0  0  0  0
   13.0580  -33.6090  -30.0900 C   0  0  0  0  0  0  0  0  0  0  0  0
    8.0970  -34.7870  -33.3740 C   0  0  0  0  0  0  0  0  0  0  0  0
   11.3310  -34.4360  -34.2390 O   0  0  0  0  0  0  0  0  0  0  0  0
    9.6660  -34.9470  -33.0360 C   0  0  2  0  0  0  0  0  0  0  0  0
  1  5  1  0
  1  7  2  0
  2 14  1  0
  2 24  2  0
  3 22  1  0
  4  6  1  0
  6  7  1  0
  8 13  1  1
  8  6  1  0
  9 15  2  0
 10 18  2  0
 11 25  1  0
 12 26  1  0
 12  3  1  0
 13  2  1  0
 14 20  2  0
 16 11  2  0
 16 10  1  0
 17 21  2  0
 18  4  1  0
 18  1  1  0
 19 26  1  0
 20 15  1  0
 21 13  2  0
 22 23  1  0
 24  9  1  0
 25 27  1  0
 25  4  2  0
 27 19  1  6
 27  8  1  0
M  END
$$$$

     RDKit          3D

 27 30  0  0  0  0  0  0  0  0999 V2000
    4.6750  -31.6890  -31.3850 O   0  0  0  0  0  0  0  0  0  0  0  0
    8.4350  -33.8970  -32.5850 C   0  0  1  0  0  0  0  0  0  0  0  0
    4.2340  -34.0780  -35.7610 C   0  0  0  0  0  0  0  0  0  0  0  0
    3.1120  -32.1650  -32.8430 N   0  0  0  0  0  0  0  0  0  0  0  0
    6.7050  -34.4590  -34.0150 C   0  0  0  0  0  0  0  0  0  0  0  0
   10.3970  -35.3940  -33.8910 C   0  0  0  0  0  0  0  0  0  0  0  0
    5.0430  -32.9470  -33.4900 C   0  0  0  0  0  0  0  0  0  0  0  0
    7.1510  -31.6280  -30.9630 O   0  0  0  0  0  0  0  0  0  0  0  0
    4.1820  -33.3740  -34.5160 C   0  0  0  0  0  0  0  0  0  0  0  0
   10.0280  -34.2140  -33.1400 C   0  0  2  0  0  0  0  0  0  0  0  0
    4.1900  -32.2650  -32.4480 C   0  0  0  0  0  0  0  0  0  0  0  0
    7.4810  -32.7370  -32.8610 C   0  0  1  0  0  0  0  0  0  0  0  0
    8.3130  -34.5070  -34.8710 C   0  0  1  0  0  0  0  0  0  0  0  0
    8.3990  -36.0530  -34.2760 C   0  0  0  0  0  0  0  0  0  0  0  0
   11.5140  -35.6910  -34.2660 O   0  0  0  0  0  0  0  0  0  0  0  0
    2.7520  -32.8900  -34.1230 C   0  0  0  0  0  0  0  0  0  0  0  0
    9.9370  -32.8410  -30.2510 O   0  0  0  0  0  0  0  0  0  0  0  0
   11.8050  -33.1180  -31.9960 C   0  0  0  0  0  0  0  0  0  0  0  0
    8.5780  -34.0520  -33.3390 C   0  0  1  0  0  0  0  0  0  0  0  0
    3.0810  -34.0600  -36.7040 C   0  0  0  0  0  0  0  0  0  0  0  0
    6.5030  -33.2240  -33.4710 C   0  0  1  0  0  0  0  0  0  0  0  0
    9.0410  -33.0800  -31.4150 C   0  0  2  0  0  0  0  0  0  0  0  0
    8.5090  -35.0140  -35.2920 C   0  0  0  0  0  0  0  0  0  0  0  0
    9.2170  -36.3350  -33.6340 C   0  0  0  0  0  0  0  0  0  0  0  0
    7.8620  -32.4280  -31.6200 C   0  0  0  0  0  0  0  0  0  0  0  0
    6.9340  -34.2640  -34.9570 C   0  0  0  0  0  0  0  0  0  0  0  0
   11.1350  -33.4920  -32.5560 C   0  0  0  0  0  0  0  0  0  0  0  0
  2 22  1  1
  3  9  1  0
  4 11  1  0
  5 21  1  0
  6 24  1  0
  6 10  1  0
 21  7  1  1
  7 11  1  0
  9 16  1  0
  9  7  2  0
 10 27  1  6
 11  1  2  0
 12  2  1  0
 12 25  1  1
 13 19  1  0
 14 24  1  0
 15  6  2  0
 16  4  2  0
 19 10  1  1
 19  2  1  0
 20  3  1  0
 21 12  1  0
 22 17  1  1
 13 23  1  1
 23 14  1  0
 25 22  1  0
 25  8  2  0
 26 13  1  0
 26  5  1  0
 27 18  3  0
M  END
$$$$

     RDKit          3D

 15 17  0  0  0  0  0  0  0  0999 V2000
    9.2260  -35.2980  -34.5640 C   0  0  0  0  0  0  0  0  0  0  0  0
    9.4220  -33.5670  -32.3770 C   0  0  0  0  0  0  0  0  0  0  0  0
    4.9060  -35.5050  -35.9250 C   0  0  0  0  0  0  0  0  0  0  0  0
   10.6690  -33.6870  -32.3740 C   0  0  0  0  0  0  0  0  0  0  0  0
    7.3950  -32.7070  -32.6460 C   0  0  0  0  0  0  0  0  0  0  0  0
    8.1620  -34.5350  -34.1290 C   0  0  0  0  0  0  0  0  0  0  0  0
    6.7450  -34.6520  -34.5950 C   0  0  0  0  0  0  0  0  0  0  0  0
    6.1140  -32.8030  -33.1120 C   0  0  0  0  0  0  0  0  0  0  0  0
    6.1850  -35.5130  -35.5530 C   0  0  0  0  0  0  0  0  0  0  0  0
    4.1190  -34.7190  -35.3870 N   0  0  0  0  0  0  0  0  0  0  0  0
   11.2450  -34.4790  -33.3240 C   0  0  0  0  0  0  0  0  0  0  0  0
    4.5180  -33.9780  -34.4160 C   0  0  0  0  0  0  0  0  0  0  0  0
   10.4990  -35.3170  -34.2720 C   0  0  0  0  0  0  0  0  0  0  0  0
    8.4250  -33.6760  -33.1090 C   0  0  0  0  0  0  0  0  0  0  0  0
    5.7640  -33.7650  -34.0170 C   0  0  0  0  0  0  0  0  0  0  0  0
  1 13  2  0
  1  6  1  0
  2  4  1  0
  3  9  1  0
  3 10  2  0
  6 14  1  0
  7  6  2  0
  7 15  1  0
  8  5  2  0
  9  7  1  0
 10 12  1  0
 11  4  2  0
 12 15  2  0
 13 11  1  0
 14  5  1  0
 14  2  2  0
 15  8  1  0
M  END
$$$$

     RDKit          3D

 23 25  0  0  0  0  0  0  0  0999 V2000
    6.6480  -33.9860  -33.6040 C   0  0  0  0  0  0  0  0  0  0  0  0
    2.9460  -33.6190  -36.3080 C   0  0  0  0  0  0  0  0  0  0  0  0
   11.0750  -33.3950  -30.2600 C   0  0  0  0  0  0  0  0  0  0  0  0
    8.1210  -33.1430  -32.0720 N   0  0  0  0  0  0  0  0  0  0  0  0
    2.1430  -32.4500  -33.9170 O   0  0  0  0  0  0  0  0  0  0  0  0
   11.5440  -35.8890  -34.0580 C   0  0  0  0  0  0  0  0  0  0  0  0
   12.4900  -32.7350  -32.0350 O   0  0  0  0  0  0  0  0  0  0  0  0
   10.2610  -33.5770  -31.5170 C   0  0  0  0  0  0  0  0  0  0  0  0
    8.0430  -34.0360  -33.0630 C   0  0  0  0  0  0  0  0  0  0  0  0
    9.1420  -34.7220  -33.3130 C   0  0  0  0  0  0  0  0  0  0  0  0
    4.0230  -33.5380  -35.1710 C   0  0  1  0  0  0  0  0  0  0  0  0
   10.3650  -36.3220  -34.6630 C   0  0  0  0  0  0  0  0  0  0  0  0
    6.3040  -34.6250  -34.8780 C   0  0  0  0  0  0  0  0  0  0  0  0
   12.5370  -33.4280  -30.7790 C   0  0  0  0  0  0  0  0  0  0  0  0
   10.3510  -34.3980  -32.6650 C   0  0  0  0  0  0  0  0  0  0  0  0
    9.1730  -35.7240  -34.2610 C   0  0  0  0  0  0  0  0  0  0  0  0
    4.5500  -32.6520  -33.0700 C   0  0  0  0  0  0  0  0  0  0  0  0
    3.5680  -32.9590  -34.0410 C   0  0  1  0  0  0  0  0  0  0  0  0
    5.0930  -34.3230  -35.3980 C   0  0  0  0  0  0  0  0  0  0  0  0
    8.9190  -31.9620  -30.3380 N   0  0  0  0  0  0  0  0  0  0  0  0
    5.7520  -33.1920  -33.1800 C   0  0  0  0  0  0  0  0  0  0  0  0
   11.4760  -34.8660  -33.1580 C   0  0  0  0  0  0  0  0  0  0  0  0
    9.0850  -32.9100  -31.3520 C   0  0  0  0  0  0  0  0  0  0  0  0
  1 21  2  0
  1  9  1  0
  4 23  2  0
  6 22  2  0
  7 14  1  0
  8 23  1  0
  8  3  1  0
  9  4  1  0
 10  9  2  0
 10 15  1  0
 11  2  1  1
 11 18  1  0
 12 16  2  0
 12  6  1  0
 13  1  1  0
 14  3  1  0
 15  8  2  0
 16 10  1  0
 18  5  1  6
 18 17  1  0
 19 11  1  0
 19 13  2  0
 21 17  2  0
 22 15  1  0
 23 20  1  0
M  END
$$$$

     RDKit          3D

 25 31  0  0  0  0  0  0  0  0999 V2000
    8.3070  -33.9940  -33.1760 C   0  0  2  0  0  0  0  0  0  0  0  0
   10.9000  -33.3010  -31.4330 C   0  0  0  0  0  0  0  0  0  0  0  0
    6.4280  -34.9400  -37.1710 C   0  0  0  0  0  0  0  0  0  0  0  0
    8.3180  -33.1220  -32.2900 C   0  0  2  0  0  0  0  0  0  0  0  0
    9.7920  -35.0230  -34.9860 C   0  0  0  0  0  0  0  0  0  0  0  0
    9.0130  -35.2120  -37.1290 F   0  0  0  0  0  0  0  0  0  0  0  0
    7.6930  -34.9950  -33.8690 C   0  0  0  0  0  0  0  0  0  0  0  0
   10.6100  -33.9920  -32.4900 C   0  0  0  0  0  0  0  0  0  0  0  0
    7.2870  -33.1300  -33.0020 C   0  0  0  0  0  0  0  0  0  0  0  0
    5.4670  -35.3310  -35.1850 C   0  0  0  0  0  0  0  0  0  0  0  0
    9.4930  -34.2660  -32.8350 C   0  0  2  0  0  0  0  0  0  0  0  0
    7.4740  -32.4170  -32.1030 C   0  0  0  0  0  0  0  0  0  0  0  0
    7.6680  -35.7430  -35.2790 N   0  0  0  0  0  0  0  0  0  0  0  0
    9.0230  -34.5910  -33.7640 C   0  0  2  0  0  0  0  0  0  0  0  0
    8.8080  -35.3600  -35.8400 C   0  0  2  0  0  0  0  0  0  0  0  0
    4.2970  -34.8800  -35.6540 C   0  0  0  0  0  0  0  0  0  0  0  0
   12.1080  -33.0900  -31.1830 N   0  0  0  0  0  0  0  0  0  0  0  0
    5.1940  -34.5220  -37.7200 C   0  0  0  0  0  0  0  0  0  0  0  0
    6.5870  -35.3550  -35.8890 C   0  0  0  0  0  0  0  0  0  0  0  0
    9.6700  -32.6710  -30.0110 C   0  0  0  0  0  0  0  0  0  0  0  0
    9.1310  -33.9170  -32.0530 C   0  0  1  0  0  0  0  0  0  0  0  0
    6.2090  -32.7590  -33.3680 O   0  0  0  0  0  0  0  0  0  0  0  0
    8.7260  -33.0740  -31.0180 C   0  0  0  0  0  0  0  0  0  0  0  0
    4.2040  -34.4080  -36.9120 N   0  0  0  0  0  0  0  0  0  0  0  0
    9.9620  -32.5510  -30.6300 C   0  0  2  0  0  0  0  0  0  0  0  0
  1  9  1  6
  1 11  1  0
  1  4  1  0
  2 17  1  0
  2 25  1  0
  3 19  2  0
  4 12  1  1
  4 21  1  0
 14  5  1  6
 15  6  1  6
  7 14  1  0
  8  2  2  0
  9  4  1  0
  9 12  1  0
 11  8  1  6
 11 21  1  0
 13  7  1  0
 14  1  1  0
 14 11  1  0
 15 13  1  0
 15  5  1  0
 16 10  2  0
 18  3  1  0
 18 24  2  0
 19 13  1  0
 19 10  1  0
 21 23  1  1
 22  9  1  0
 23 25  1  0
 24 16  1  0
 25 20  1  1
M  END
$$$$

     RDKit          3D

 35 43  0  0  0  0  0  0  0  0999 V2000
   10.8230  -33.6480  -31.3170 C   0  0  0  0  0  0  0  0  0  0  0  0
    6.7570  -32.1160  -32.1530 C   0  0  0  0  0  0  0  0  0  0  0  0
   13.2530  -33.3510  -30.7500 S   0  0  0  0  0  0  0  0  0  0  0  0
   13.9210  -32.6430  -27.9030 O   0  0  0  0  0  0  0  0  0  0  0  0
   12.1180  -34.1600  -33.1490 C   0  0  0  0  0  0  0  0  0  0  0  0
    3.5880  -34.9790  -36.6110 O   0  0  0  0  0  0  0  0  0  0  0  0
    8.4210  -33.5680  -31.7240 O   0  0  0  0  0  0  0  0  0  0  0  0
   12.5500  -32.5540  -28.1810 C   0  0  0  0  0  0  0  0  0  0  0  0
    5.3810  -31.5410  -32.0690 C   0  0  1  0  0  0  0  0  0  0  0  0
   10.8120  -33.5370  -30.0330 C   0  0  0  0  0  0  0  0  0  0  0  0
    3.6900  -33.7130  -33.8670 C   0  0  1  0  0  0  0  0  0  0  0  0
    3.5900  -33.1610  -35.2860 C   0  0  0  0  0  0  0  0  0  0  0  0
    7.8740  -32.7610  -32.9220 C   0  0  2  0  0  0  0  0  0  0  0  0
    4.3650  -33.7960  -36.2910 C   0  0  1  0  0  0  0  0  0  0  0  0
    5.6710  -34.4800  -35.3320 C   0  0  2  0  0  0  0  0  0  0  0  0
   11.8830  -33.6290  -31.9060 C   0  0  1  0  0  0  0  0  0  0  0  0
   10.0620  -33.5610  -29.1710 F   0  0  0  0  0  0  0  0  0  0  0  0
    8.7250  -33.9640  -33.9090 C   0  0  1  0  0  0  0  0  0  0  0  0
    7.4600  -33.6780  -33.9160 C   0  0  2  0  0  0  0  0  0  0  0  0
    7.7600  -35.9120  -35.5450 C   0  0  0  0  0  0  0  0  0  0  0  0
    6.1420  -33.8540  -34.0270 C   0  0  1  0  0  0  0  0  0  0  0  0
    9.6660  -33.6810  -32.0630 C   0  0  2  0  0  0  0  0  0  0  0  0
    8.2300  -35.0500  -34.2640 C   0  0  1  0  0  0  0  0  0  0  0  0
    5.1730  -33.4440  -33.1930 C   0  0  1  0  0  0  0  0  0  0  0  0
    9.7700  -33.9640  -33.2760 N   0  0  0  0  0  0  0  0  0  0  0  0
    0.4880  -32.1120  -33.6080 C   0  0  0  0  0  0  0  0  0  0  0  0
   10.8830  -35.6920  -34.2830 O   0  0  0  0  0  0  0  0  0  0  0  0
    6.6340  -31.7700  -31.5350 C   0  0  2  0  0  0  0  0  0  0  0  0
   12.0940  -33.1620  -29.4950 C   0  0  1  0  0  0  0  0  0  0  0  0
    2.7230  -33.3370  -32.9160 N   0  0  0  0  0  0  0  0  0  0  0  0
   10.7960  -34.6080  -33.7370 C   0  0  0  0  0  0  0  0  0  0  0  0
    6.0610  -30.3300  -31.5450 O   0  0  0  0  0  0  0  0  0  0  0  0
    1.6740  -32.1290  -32.9970 C   0  0  0  0  0  0  0  0  0  0  0  0
    4.8370  -32.0260  -32.7800 C   0  0  0  0  0  0  0  0  0  0  0  0
    6.4350  -35.4310  -35.8530 C   0  0  0  0  0  0  0  0  0  0  0  0
  1 10  2  0
 28  2  1  6
  3 29  1  0
  8  4  1  0
  9 34  1  6
  9 32  1  0
  9 28  1  0
 10 29  1  0
 10 17  1  0
 11 24  1  0
 11 30  1  1
 12 11  1  0
 13  2  1  6
 13  7  1  0
 14  6  1  1
 14 15  1  0
 14 12  1  0
 15 35  1  6
 21 15  1  6
 16  5  1  1
 16  1  1  0
 16  3  1  0
 18 25  1  1
 18 13  1  0
 19 18  1  0
 19 13  1  0
 23 20  1  6
 21 19  1  0
 21 24  1  0
 22  7  1  1
 22  1  1  0
 19 23  1  6
 23 18  1  0
 24 34  1  6
 25 22  1  0
 26 33  2  0
 27 31  2  0
 29  8  1  6
 31 25  1  0
 31  5  1  0
 32 28  1  0
 33 30  1  0
 35 20  1  0
M  END
$$$$

     RDKit          3D

 33 39  0  0  0  0  0  0  0  0999 V2000
    7.3070  -32.3560  -32.6120 C   0  0  0  0  0  0  0  0  0  0  0  0
   11.6810  -34.6250  -33.4240 O   0  0  0  0  0  0  0  0  0  0  0  0
    8.3960  -32.9550  -33.3880 C   0  0  0  0  0  0  0  0  0  0  0  0
   10.2600  -33.4540  -32.0640 C   0  0  0  0  0  0  0  0  0  0  0  0
    4.9130  -32.3090  -32.2440 C   0  0  0  0  0  0  0  0  0  0  0  0
    5.9600  -32.6720  -33.0530 C   0  0  0  0  0  0  0  0  0  0  0  0
   10.6320  -31.7350  -29.3730 C   0  0  0  0  0  0  0  0  0  0  0  0
   11.8620  -33.1450  -29.9600 C   0  0  2  0  0  0  0  0  0  0  0  0
    9.4640  -35.0250  -33.6420 C   0  0  0  0  0  0  0  0  0  0  0  0
   12.4270  -32.8070  -28.7290 N   0  0  0  0  0  0  0  0  0  0  0  0
    7.6390  -32.1040  -31.3870 C   0  0  0  0  0  0  0  0  0  0  0  0
   11.6400  -31.8690  -28.1830 C   0  0  0  0  0  0  0  0  0  0  0  0
    8.5490  -37.0930  -34.4440 C   0  0  0  0  0  0  0  0  0  0  0  0
    5.4350  -35.3360  -35.9040 C   0  0  0  0  0  0  0  0  0  0  0  0
    4.5950  -36.4210  -36.3320 C   0  0  0  0  0  0  0  0  0  0  0  0
    9.9140  -32.7900  -31.1250 C   0  0  0  0  0  0  0  0  0  0  0  0
    5.1860  -31.7980  -31.0150 C   0  0  0  0  0  0  0  0  0  0  0  0
    9.3590  -33.8150  -32.9810 C   0  0  0  0  0  0  0  0  0  0  0  0
    8.4190  -35.7350  -34.0760 C   0  0  0  0  0  0  0  0  0  0  0  0
    8.8590  -32.3350  -30.8120 N   0  0  0  0  0  0  0  0  0  0  0  0
    9.8160  -37.6100  -34.4300 C   0  0  0  0  0  0  0  0  0  0  0  0
   12.5090  -33.7460  -31.1830 C   0  0  0  0  0  0  0  0  0  0  0  0
    6.8820  -35.3730  -35.7010 C   0  0  0  0  0  0  0  0  0  0  0  0
    6.6410  -31.3710  -30.8020 C   0  0  0  0  0  0  0  0  0  0  0  0
    3.5780  -34.0980  -36.3260 N   0  0  0  0  0  0  0  0  0  0  0  0
    7.2410  -35.0980  -34.4140 O   0  0  0  0  0  0  0  0  0  0  0  0
   10.8760  -36.7990  -34.1820 C   0  0  0  0  0  0  0  0  0  0  0  0
   11.5530  -33.9050  -32.2210 C   0  0  0  0  0  0  0  0  0  0  0  0
    3.2650  -36.2690  -36.7220 C   0  0  0  0  0  0  0  0  0  0  0  0
    4.9080  -34.1450  -35.9360 C   0  0  0  0  0  0  0  0  0  0  0  0
   10.7970  -32.4590  -29.9950 C   0  0  2  0  0  0  0  0  0  0  0  0
    2.8700  -34.9550  -36.7400 C   0  0  0  0  0  0  0  0  0  0  0  0
   10.6860  -35.5210  -33.8020 C   0  0  0  0  0  0  0  0  0  0  0  0
  1 11  2  0
  2 28  1  0
  3 18  2  0
  3  1  1  0
  4 16  1  0
  5 17  1  0
  6  1  1  0
  6  5  2  0
  7 12  1  0
  8 22  1  6
  8 10  1  0
  9 18  1  0
 10 12  1  0
 11 20  1  0
 11 24  1  0
 13 21  2  0
 13 19  1  0
 14 23  1  0
 15 14  2  0
 16 20  2  0
 16 31  1  0
 17 24  1  0
 18  4  1  0
 19  9  2  0
 21 27  1  0
 23 26  1  0
 25 30  2  0
 26 19  1  0
 27 33  2  0
 28  4  2  0
 28 22  1  0
 29 15  1  0
 30 14  1  0
 31  8  1  0
 31  7  1  6
 32 29  2  0
 32 25  1  0
 33  9  1  0
 33  2  1  0
M  END
$$$$

     RDKit          3D

 19 21  0  0  0  0  0  0  0  0999 V2000
    6.4550  -32.9940  -32.8970 C   0  0  0  0  0  0  0  0  0  0  0  0
    9.2910  -35.6260  -34.0390 C   0  0  0  0  0  0  0  0  0  0  0  0
    7.0730  -34.1520  -34.3140 C   0  0  0  0  0  0  0  0  0  0  0  0
    9.4640  -34.6010  -33.4130 C   0  0  0  0  0  0  0  0  0  0  0  0
   11.8750  -34.7930  -33.4890 C   0  0  0  0  0  0  0  0  0  0  0  0
    4.0860  -35.3760  -36.2060 N   0  0  0  0  0  0  0  0  0  0  0  0
   10.8480  -33.3070  -31.9000 C   0  0  0  0  0  0  0  0  0  0  0  0
    3.2920  -33.3880  -35.0650 F   0  0  0  0  0  0  0  0  0  0  0  0
   11.6000  -35.9160  -34.3050 C   0  0  0  0  0  0  0  0  0  0  0  0
   10.7060  -34.1710  -32.9630 C   0  0  0  0  0  0  0  0  0  0  0  0
    5.0430  -34.6430  -35.5350 C   0  0  2  0  0  0  0  0  0  0  0  0
    9.3610  -33.2350  -31.7620 C   0  0  0  0  0  0  0  0  0  0  0  0
    6.4200  -34.9790  -35.0870 C   0  0  0  0  0  0  0  0  0  0  0  0
   10.3070  -36.3250  -34.4720 C   0  0  0  0  0  0  0  0  0  0  0  0
    7.3600  -33.6980  -33.3170 C   0  0  1  0  0  0  0  0  0  0  0  0
    4.3520  -33.6310  -34.5430 C   0  0  1  0  0  0  0  0  0  0  0  0
    7.3230  -32.3400  -32.0240 S   0  0  0  0  0  0  0  0  0  0  0  0
    8.6820  -33.7220  -32.8950 C   0  0  2  0  0  0  0  0  0  0  0  0
    5.0730  -33.0550  -33.3390 C   0  0  0  0  0  0  0  0  0  0  0  0
  1 17  2  0
  2  4  2  0
  4 10  1  0
  4 18  1  0
  5 10  2  0
  7 12  1  0
  9  5  1  0
 10  7  1  0
 11  6  1  1
 11 13  1  0
 11 16  1  0
 13  3  1  0
 14  9  2  0
 14  2  1  0
 15  3  1  6
 15  1  1  0
 15 18  1  0
 16  8  1  6
 16 19  1  0
 18 12  1  1
 19  1  1  0
M  END
$$$$

     RDKit          3D

 17 20  0  0  0  0  0  0  0  0999 V2000
    5.3220  -33.2900  -33.7520 C   0  0  2  0  0  0  0  0  0  0  0  0
    3.1010  -32.4660  -33.6150 C   0  0  0  0  0  0  0  0  0  0  0  0
    6.3330  -32.5620  -33.1970 C   0  0  0  0  0  0  0  0  0  0  0  0
    9.7730  -34.5000  -32.6420 C   0  0  0  0  0  0  0  0  0  0  0  0
    9.2370  -33.4550  -32.0980 C   0  0  0  0  0  0  0  0  0  0  0  0
    5.5320  -34.2850  -34.7580 C   0  0  1  0  0  0  0  0  0  0  0  0
    7.3580  -33.1960  -32.9390 C   0  0  0  0  0  0  0  0  0  0  0  0
    6.6050  -35.0080  -34.5870 C   0  0  0  0  0  0  0  0  0  0  0  0
   11.2910  -33.3120  -30.6020 C   0  0  0  0  0  0  0  0  0  0  0  0
    9.9330  -32.8460  -30.9670 C   0  0  0  0  0  0  0  0  0  0  0  0
    4.0260  -33.0720  -34.1870 C   0  0  0  0  0  0  0  0  0  0  0  0
    4.0460  -34.2530  -35.2070 S   0  0  0  0  0  0  0  0  0  0  0  0
    8.7700  -35.1570  -33.5400 C   0  0  0  0  0  0  0  0  0  0  0  0
    8.1260  -32.7220  -32.1430 N   0  0  0  0  0  0  0  0  0  0  0  0
    7.5440  -34.2550  -33.6210 C   0  0  0  0  0  0  0  0  0  0  0  0
   11.6720  -34.3480  -31.4610 C   0  0  0  0  0  0  0  0  0  0  0  0
   11.0390  -34.8010  -32.5780 C   0  0  0  0  0  0  0  0  0  0  0  0
  1  3  1  6
  3  7  1  0
  4 17  1  0
  4  5  2  0
  5 10  1  0
  6  8  1  1
  6  1  1  0
  7 14  2  0
  8 15  1  0
 10  9  1  0
 11  1  1  0
 11  2  2  0
 12  6  1  0
 12 11  1  0
 13  4  1  0
 14  5  1  0
 15 13  2  0
 15  7  1  0
 16  9  1  0
 17 16  1  0
M  END
$$$$

     RDKit          3D

 36 42  0  0  0  0  0  0  0  0999 V2000
   10.6740  -33.3460  -30.9010 C   0  0  0  0  0  0  0  0  0  0  0  0
    7.3360  -32.8340  -32.2690 C   0  0  0  0  0  0  0  0  0  0  0  0
   10.0920  -37.5350  -33.9440 C   0  0  0  0  0  0  0  0  0  0  0  0
    9.6020  -30.8810  -28.4680 N   0  0  0  0  0  0  0  0  0  0  0  0
    4.6130  -33.5910  -36.1060 C   0  0  0  0  0  0  0  0  0  0  0  0
    5.2790  -34.9430  -36.5040 C   0  0  0  0  0  0  0  0  0  0  0  0
    6.1610  -35.6080  -35.7100 C   0  0  0  0  0  0  0  0  0  0  0  0
    9.4600  -33.5890  -31.6290 C   0  0  0  0  0  0  0  0  0  0  0  0
    5.0510  -32.8200  -32.8340 C   0  0  0  0  0  0  0  0  0  0  0  0
    9.9070  -38.7150  -33.8260 C   0  0  0  0  0  0  0  0  0  0  0  0
    9.3650  -34.5720  -32.5240 C   0  0  0  0  0  0  0  0  0  0  0  0
    8.3760  -34.6580  -33.4310 C   0  0  0  0  0  0  0  0  0  0  0  0
    8.5630  -35.8880  -35.5630 C   0  0  0  0  0  0  0  0  0  0  0  0
   10.8130  -38.0260  -34.4500 O   0  0  0  0  0  0  0  0  0  0  0  0
    3.8240  -33.1960  -32.8100 C   0  0  0  0  0  0  0  0  0  0  0  0
   11.9450  -32.5580  -29.2610 C   0  0  0  0  0  0  0  0  0  0  0  0
   12.7530  -33.4500  -29.9940 N   0  0  0  0  0  0  0  0  0  0  0  0
    8.4680  -32.6850  -31.3890 C   0  0  0  0  0  0  0  0  0  0  0  0
    7.3580  -35.5650  -36.3110 C   0  0  0  0  0  0  0  0  0  0  0  0
    5.6220  -31.4940  -31.0450 C   0  0  0  0  0  0  0  0  0  0  0  0
    3.9160  -33.9480  -33.7860 O   0  0  0  0  0  0  0  0  0  0  0  0
    9.5920  -31.6880  -29.5180 C   0  0  0  0  0  0  0  0  0  0  0  0
   10.2020  -35.7920  -32.5060 N   0  0  0  0  0  0  0  0  0  0  0  0
    7.3620  -33.7080  -33.3510 C   0  0  0  0  0  0  0  0  0  0  0  0
   11.9470  -33.8830  -31.0370 C   0  0  0  0  0  0  0  0  0  0  0  0
   12.4350  -31.9230  -28.1880 N   0  0  0  0  0  0  0  0  0  0  0  0
    8.8280  -35.8050  -34.2420 C   0  0  1  0  0  0  0  0  0  0  0  0
   10.7180  -32.4520  -29.8180 C   0  0  0  0  0  0  0  0  0  0  0  0
    5.9620  -32.3250  -32.0970 C   0  0  1  0  0  0  0  0  0  0  0  0
    2.1770  -30.9300  -30.6660 C   0  0  0  0  0  0  0  0  0  0  0  0
    3.6800  -33.8370  -35.1560 C   0  0  0  0  0  0  0  0  0  0  0  0
    9.7690  -36.4200  -33.6190 C   0  0  2  0  0  0  0  0  0  0  0  0
    8.5270  -31.7910  -30.2810 N   0  0  0  0  0  0  0  0  0  0  0  0
    2.8960  -32.5340  -32.1580 C   0  0  0  0  0  0  0  0  0  0  0  0
    4.4650  -31.1080  -30.8840 C   0  0  0  0  0  0  0  0  0  0  0  0
    3.2450  -31.6090  -31.2580 C   0  0  0  0  0  0  0  0  0  0  0  0
  2 29  1  0
  2 18  2  0
  3 10  1  0
 32  3  1  1
  5 31  1  0
  6  5  1  0
  6  7  1  0
  8 18  1  0
  8  1  1  0
  9 15  2  0
 11 23  1  0
 11  8  2  0
 12 24  2  0
 12 11  1  0
 14  3  1  0
 14 10  1  0
 15 34  1  0
 16 26  1  0
 17 16  2  0
 18 33  1  0
 19  7  1  0
 19 13  1  0
 20 35  2  0
 21 15  1  0
 22  4  1  0
 24  2  1  0
 25  1  2  0
 25 17  1  0
 27 13  1  6
 27 32  1  0
 27 12  1  0
 28  1  1  0
 28 22  1  0
 28 16  1  0
 29  9  1  0
 29 20  1  1
 31 21  1  0
 32 23  1  0
 33 22  2  0
 34 36  2  0
 36 35  1  0
 36 30  1  0
M  END
$$$$

     RDKit          3D

 37 42  0  0  0  0  0  0  0  0999 V2000
   12.3910  -32.3240  -27.7430 C   0  0  0  0  0  0  0  0  0  0  0  0
    4.3660  -34.8800  -38.2390 C   0  0  0  0  0  0  0  0  0  0  0  0
    9.2950  -34.6410  -34.7320 C   0  0  0  0  0  0  0  0  0  0  0  0
    5.2600  -32.3090  -32.5840 C   0  0  2  0  0  0  0  0  0  0  0  0
    3.7320  -36.2940  -36.8470 C   0  0  0  0  0  0  0  0  0  0  0  0
    9.2330  -36.0830  -33.8890 C   0  0  0  0  0  0  0  0  0  0  0  0
    6.3480  -33.6940  -34.0110 C   0  0  2  0  0  0  0  0  0  0  0  0
    3.8370  -32.4420  -32.8360 C   0  0  0  0  0  0  0  0  0  0  0  0
   11.2840  -32.4140  -29.6240 C   0  0  0  0  0  0  0  0  0  0  0  0
    9.6360  -33.6020  -32.2310 N   0  0  0  0  0  0  0  0  0  0  0  0
    7.7650  -32.0710  -32.6070 C   0  0  0  0  0  0  0  0  0  0  0  0
   12.5060  -34.6830  -33.8620 O   0  0  0  0  0  0  0  0  0  0  0  0
    1.9740  -34.7110  -36.0830 O   0  0  0  0  0  0  0  0  0  0  0  0
   10.7290  -35.8990  -33.3940 O   0  0  0  0  0  0  0  0  0  0  0  0
    3.2430  -34.0330  -36.0210 C   0  0  1  0  0  0  0  0  0  0  0  0
    6.3920  -31.8390  -30.5510 O   0  0  0  0  0  0  0  0  0  0  0  0
   12.5700  -33.5750  -31.2720 C   0  0  0  0  0  0  0  0  0  0  0  0
    3.2000  -32.9720  -33.8130 C   0  0  0  0  0  0  0  0  0  0  0  0
    6.2880  -31.8780  -31.9120 C   0  0  2  0  0  0  0  0  0  0  0  0
   11.3710  -34.4420  -33.2610 C   0  0  1  0  0  0  0  0  0  0  0  0
   11.4350  -34.4480  -31.8140 C   0  0  2  0  0  0  0  0  0  0  0  0
    3.7940  -33.6740  -34.7510 C   0  0  2  0  0  0  0  0  0  0  0  0
    7.1620  -34.8100  -33.6930 C   0  0  0  0  0  0  0  0  0  0  0  0
    5.6910  -32.8290  -33.9000 N   0  0  0  0  0  0  0  0  0  0  0  0
    8.6320  -32.7590  -31.8620 C   0  0  0  0  0  0  0  0  0  0  0  0
    5.5660  -35.1950  -36.0790 C   0  0  0  0  0  0  0  0  0  0  0  0
   10.0440  -34.4510  -31.2730 C   0  0  0  0  0  0  0  0  0  0  0  0
    6.9460  -35.8660  -35.9480 O   0  0  0  0  0  0  0  0  0  0  0  0
   10.0970  -33.8910  -33.5770 C   0  0  1  0  0  0  0  0  0  0  0  0
   11.3590  -31.8020  -28.3940 C   0  0  0  0  0  0  0  0  0  0  0  0
    8.9540  -36.2450  -34.8760 C   0  0  0  0  0  0  0  0  0  0  0  0
   13.1570  -33.1890  -28.0890 C   0  0  0  0  0  0  0  0  0  0  0  0
    6.7150  -35.9530  -34.6580 C   0  0  0  0  0  0  0  0  0  0  0  0
   12.4240  -33.4040  -29.6180 N   0  0  0  0  0  0  0  0  0  0  0  0
    5.1930  -33.8010  -34.5190 N   0  0  0  0  0  0  0  0  0  0  0  0
    4.1110  -35.2390  -36.8290 C   0  0  2  0  0  0  0  0  0  0  0  0
    8.8260  -32.4020  -30.7350 O   0  0  0  0  0  0  0  0  0  0  0  0
 36  2  1  6
 29  3  1  1
  4 19  1  0
  5 36  1  0
  6 14  1  0
  7 24  1  0
  7 23  1  1
  8  4  1  0
  9 34  1  0
  9 30  2  0
 10 25  1  0
 10 27  1  0
 11 19  1  0
 11 25  1  0
 14 20  1  0
 15 13  1  1
 15 22  1  0
 17 34  1  0
 18  8  2  0
 19 16  1  1
 20 12  1  6
 20 21  1  0
 21 27  1  0
 21 17  1  1
 22 35  1  0
 22 18  1  6
  4 24  1  6
 25 37  2  0
 26 28  1  0
 28 33  1  0
 29 20  1  0
 29 10  1  0
 30  1  1  0
 31  3  1  0
 31  6  1  0
 32  1  2  0
 33 23  1  0
 34 32  1  0
 35  7  1  0
 35 24  1  0
 36 26  1  0
 36 15  1  0
M  END
$$$$

     RDKit          3D

 19 21  0  0  0  0  0  0  0  0999 V2000
   12.6160  -33.2710  -28.7380 O   0  0  0  0  0  0  0  0  0  0  0  0
    4.5380  -34.3350  -34.3310 O   0  0  0  0  0  0  0  0  0  0  0  0
    7.7830  -35.1250  -34.8560 N   0  0  0  0  0  0  0  0  0  0  0  0
    9.7490  -36.0520  -34.0450 C   0  0  0  0  0  0  0  0  0  0  0  0
    6.7600  -33.4910  -33.3380 C   0  0  0  0  0  0  0  0  0  0  0  0
   10.4930  -33.1760  -31.2690 C   0  0  2  0  0  0  0  0  0  0  0  0
   11.0270  -35.7210  -33.3930 C   0  0  0  0  0  0  0  0  0  0  0  0
   10.5340  -32.4730  -29.2000 C   0  0  0  0  0  0  0  0  0  0  0  0
    5.4270  -35.0870  -36.1190 O   0  0  0  0  0  0  0  0  0  0  0  0
    6.7000  -34.5050  -34.3370 C   0  0  1  0  0  0  0  0  0  0  0  0
   11.7670  -33.2350  -30.8430 O   0  0  0  0  0  0  0  0  0  0  0  0
    7.8840  -33.2360  -32.6400 C   0  0  0  0  0  0  0  0  0  0  0  0
   11.3990  -34.2500  -33.1990 C   0  0  0  0  0  0  0  0  0  0  0  0
    5.5050  -34.7820  -34.9240 C   0  0  0  0  0  0  0  0  0  0  0  0
    8.9910  -33.8910  -33.0750 C   0  0  2  0  0  0  0  0  0  0  0  0
   10.3430  -33.3220  -32.7100 C   0  0  1  0  0  0  0  0  0  0  0  0
    9.7240  -32.5690  -30.3210 C   0  0  0  0  0  0  0  0  0  0  0  0
   11.7040  -33.0520  -29.4680 C   0  0  0  0  0  0  0  0  0  0  0  0
    8.8070  -34.9530  -34.0200 C   0  0  2  0  0  0  0  0  0  0  0  0
  3 10  1  0
  3 19  1  0
  4  7  1  0
  5 12  2  0
  6 11  1  0
  6 17  1  6
  7 13  1  0
  9 14  2  0
 10 14  1  6
 10  5  1  0
 11 18  1  0
 14  2  1  0
 15 16  1  0
 15 12  1  6
 16 13  1  1
 16  6  1  0
 17  8  1  0
 18  8  1  0
 18  1  2  0
 19  4  1  1
 19 15  1  0
M  END
$$$$

     RDKit          3D

 20 26  0  0  0  0  0  0  0  0999 V2000
    6.5400  -33.9590  -34.2740 C   0  0  0  0  0  0  0  0  0  0  0  0
   11.4870  -34.7370  -33.8330 C   0  0  0  0  0  0  0  0  0  0  0  0
   10.0200  -33.5770  -30.9730 C   0  0  2  0  0  0  0  0  0  0  0  0
    7.7090  -34.3540  -33.5240 C   0  0  0  0  0  0  0  0  0  0  0  0
    7.8320  -35.5370  -35.4590 C   0  0  1  0  0  0  0  0  0  0  0  0
   10.1290  -34.6770  -33.0030 C   0  0  2  0  0  0  0  0  0  0  0  0
    9.2580  -33.8520  -32.7090 C   0  0  1  0  0  0  0  0  0  0  0  0
    7.7170  -34.8480  -34.4840 C   0  0  1  0  0  0  0  0  0  0  0  0
    9.6020  -36.5360  -33.6370 C   0  0  0  0  0  0  0  0  0  0  0  0
    8.1940  -36.2940  -34.7110 C   0  0  2  0  0  0  0  0  0  0  0  0
   11.7060  -34.0120  -32.7900 C   0  0  0  0  0  0  0  0  0  0  0  0
    6.6070  -35.5670  -36.1300 C   0  0  0  0  0  0  0  0  0  0  0  0
    8.4380  -33.8320  -32.0820 C   0  0  1  0  0  0  0  0  0  0  0  0
    5.4600  -34.8860  -35.9500 C   0  0  0  0  0  0  0  0  0  0  0  0
    9.1390  -36.0360  -33.9140 S   0  0  2  0  0  0  0  0  0  0  0  0
    8.8950  -32.5360  -30.9550 O   0  0  0  0  0  0  0  0  0  0  0  0
    4.5380  -35.0110  -37.0230 N   0  0  0  0  0  0  0  0  0  0  0  0
   11.3920  -33.3110  -31.5000 C   0  0  0  0  0  0  0  0  0  0  0  0
    9.2310  -35.1520  -33.9890 C   0  0  2  0  0  0  0  0  0  0  0  0
    5.4920  -34.0900  -34.8160 C   0  0  0  0  0  0  0  0  0  0  0  0
  1  4  2  0
  2 11  1  0
  3 18  1  6
  3 16  1  0
  4 13  1  0
  5 12  1  1
  5 10  1  0
  5  8  1  0
  6  2  1  6
  6 11  1  0
  6  7  1  0
  7 13  1  1
  7  3  1  0
  8 19  1  0
  8  4  1  6
 10  8  1  0
 10 15  1  6
 11 18  1  0
 12 14  2  0
 13 16  1  6
 14 20  1  0
 15  9  1  6
 17 14  1  0
 19 15  1  1
 19  6  1  0
 20  1  2  0
M  END
$$$$

     RDKit          3D

 20 24  0  0  0  0  0  0  0  0999 V2000
    8.1130  -35.5670  -34.9130 C   0  0  0  0  0  0  0  0  0  0  0  0
    5.1570  -34.0290  -34.3310 N   0  0  0  0  0  0  0  0  0  0  0  0
    8.2920  -33.1020  -31.8940 C   0  0  0  0  0  0  0  0  0  0  0  0
   10.8360  -34.1580  -32.7180 C   0  0  0  0  0  0  0  0  0  0  0  0
   11.5360  -35.5270  -34.3780 C   0  0  0  0  0  0  0  0  0  0  0  0
    7.2790  -32.1340  -31.6970 C   0  0  0  0  0  0  0  0  0  0  0  0
   11.9540  -34.7900  -33.4700 C   0  0  0  0  0  0  0  0  0  0  0  0
    5.6600  -35.0080  -35.0960 C   0  0  0  0  0  0  0  0  0  0  0  0
    7.0180  -34.9910  -34.6730 C   0  0  0  0  0  0  0  0  0  0  0  0
    7.0380  -31.4940  -30.8550 O   0  0  0  0  0  0  0  0  0  0  0  0
    7.2210  -34.0910  -33.6960 C   0  0  0  0  0  0  0  0  0  0  0  0
    5.1690  -32.1280  -32.5690 C   0  0  0  0  0  0  0  0  0  0  0  0
   10.7680  -33.3480  -31.5890 C   0  0  0  0  0  0  0  0  0  0  0  0
   10.4600  -36.0530  -34.7330 C   0  0  0  0  0  0  0  0  0  0  0  0
    6.2370  -33.4720  -33.4660 C   0  0  0  0  0  0  0  0  0  0  0  0
    9.5520  -32.8550  -31.2060 C   0  0  0  0  0  0  0  0  0  0  0  0
    9.5170  -34.4810  -33.3870 C   0  0  0  0  0  0  0  0  0  0  0  0
    8.3740  -34.0110  -32.9460 C   0  0  1  0  0  0  0  0  0  0  0  0
    9.3660  -35.3520  -34.3110 C   0  0  0  0  0  0  0  0  0  0  0  0
    6.1730  -32.6060  -32.6710 N   0  0  0  0  0  0  0  0  0  0  0  0
  1  9  2  0
  1 19  1  0
  2 15  1  0
  3  6  1  0
  3 16  2  0
  4 13  2  0
  5  7  1  0
  6 10  2  0
  7  4  1  0
  8  9  1  0
  8  2  2  0
  9 11  1  0
 11 15  2  0
 13 16  1  0
 14  5  1  0
 14 19  1  0
 15 20  1  0
 17 18  1  0
 17  4  1  0
 18 11  1  0
 18  3  1  6
 19 17  2  0
 20 12  1  0
 20  6  1  0
M  END
$$$$

     RDKit          3D

 29 34  0  0  0  0  0  0  0  0999 V2000
   13.2220  -33.1120  -32.6960 O   0  0  0  0  0  0  0  0  0  0  0  0
    7.5260  -34.6840  -34.0730 C   0  0  0  0  0  0  0  0  0  0  0  0
   11.8880  -35.7920  -34.7570 C   0  0  0  0  0  0  0  0  0  0  0  0
    5.2310  -34.5030  -34.2390 C   0  0  0  0  0  0  0  0  0  0  0  0
    7.5720  -32.6720  -32.1630 C   0  0  0  0  0  0  0  0  0  0  0  0
    6.3250  -35.9330  -35.6950 C   0  0  0  0  0  0  0  0  0  0  0  0
   10.5850  -35.7320  -34.4050 C   0  0  0  0  0  0  0  0  0  0  0  0
    5.2130  -31.2960  -31.5270 C   0  0  0  0  0  0  0  0  0  0  0  0
    4.1470  -34.3290  -34.0020 N   0  0  0  0  0  0  0  0  0  0  0  0
   14.5890  -33.2750  -33.2680 C   0  0  0  0  0  0  0  0  0  0  0  0
    8.7200  -34.3250  -33.4060 C   0  0  0  0  0  0  0  0  0  0  0  0
   10.9240  -33.8620  -32.9030 C   0  0  0  0  0  0  0  0  0  0  0  0
    3.4060  -33.4700  -33.8850 N   0  0  0  0  0  0  0  0  0  0  0  0
    3.9880  -35.8310  -35.7200 O   0  0  0  0  0  0  0  0  0  0  0  0
    7.5440  -31.6280  -31.2150 C   0  0  0  0  0  0  0  0  0  0  0  0
    6.3880  -33.0510  -32.8170 C   0  0  0  0  0  0  0  0  0  0  0  0
   10.0090  -33.1500  -31.9870 C   0  0  0  0  0  0  0  0  0  0  0  0
    3.7740  -32.5170  -32.9430 C   0  0  0  0  0  0  0  0  0  0  0  0
    5.1610  -32.3450  -32.4510 C   0  0  0  0  0  0  0  0  0  0  0  0
    8.7480  -33.4000  -32.4840 C   0  0  0  0  0  0  0  0  0  0  0  0
   12.2770  -33.9400  -33.2750 C   0  0  0  0  0  0  0  0  0  0  0  0
   12.7800  -34.8760  -34.1740 C   0  0  0  0  0  0  0  0  0  0  0  0
   10.1710  -32.4980  -30.9730 O   0  0  0  0  0  0  0  0  0  0  0  0
   10.0890  -34.7300  -33.6370 C   0  0  0  0  0  0  0  0  0  0  0  0
    6.3920  -34.1190  -33.6760 C   0  0  0  0  0  0  0  0  0  0  0  0
    6.4020  -30.9400  -30.9810 C   0  0  0  0  0  0  0  0  0  0  0  0
    7.3940  -35.5620  -35.0740 C   0  0  0  0  0  0  0  0  0  0  0  0
    5.1390  -35.4070  -35.2250 C   0  0  0  0  0  0  0  0  0  0  0  0
    2.8980  -31.7120  -32.5800 O   0  0  0  0  0  0  0  0  0  0  0  0
  2 25  1  0
  2 11  2  0
  3  7  2  0
  3 22  1  0
  4  9  1  0
  4 25  1  0
  5 15  1  0
  6 28  1  0
  6 27  2  0
  7 24  1  0
  8 26  1  0
  9 13  2  0
 10  1  1  0
 11 20  1  0
 12 17  1  0
 13 18  1  0
 14 28  1  0
 15 26  2  0
 16 19  1  0
 16  5  1  0
 17 23  2  0
 18 29  2  0
 18 19  1  0
 19  8  2  0
 20  5  2  0
 20 17  1  0
 21 12  1  0
 21  1  1  0
 22 21  2  0
 24 11  1  0
 24 12  2  0
 25 16  2  0
 27  2  1  0
 28  4  2  0
M  END
$$$$

     RDKit          3D

 22 25  0  0  0  0  0  0  0  0999 V2000
    9.9760  -32.4710  -33.8850 F   0  0  0  0  0  0  0  0  0  0  0  0
    8.2930  -34.9390  -35.3950 C   0  0  2  0  0  0  0  0  0  0  0  0
    9.6490  -33.3180  -33.0250 C   0  0  0  0  0  0  0  0  0  0  0  0
    9.4040  -34.6870  -34.7880 C   0  0  0  0  0  0  0  0  0  0  0  0
   10.0770  -35.8320  -34.3490 F   0  0  0  0  0  0  0  0  0  0  0  0
    5.7090  -34.4400  -34.7480 C   0  0  0  0  0  0  0  0  0  0  0  0
   10.7330  -33.8910  -32.0290 C   0  0  1  0  0  0  0  0  0  0  0  0
   11.6760  -34.4290  -31.3630 C   0  0  1  0  0  0  0  0  0  0  0  0
    9.0080  -34.0860  -33.5420 N   0  0  0  0  0  0  0  0  0  0  0  0
    8.4890  -34.0920  -32.8340 O   0  0  0  0  0  0  0  0  0  0  0  0
    7.6120  -33.9040  -34.4540 C   0  0  0  0  0  0  0  0  0  0  0  0
   12.2440  -33.8440  -33.8540 O   0  0  0  0  0  0  0  0  0  0  0  0
    5.4380  -34.1870  -33.6120 C   0  0  0  0  0  0  0  0  0  0  0  0
    9.4240  -36.0490  -34.3250 O   0  0  0  0  0  0  0  0  0  0  0  0
    9.8260  -33.5890  -30.7610 O   0  0  0  0  0  0  0  0  0  0  0  0
    8.3790  -36.3570  -34.9990 C   0  0  0  0  0  0  0  0  0  0  0  0
    9.4730  -33.9960  -32.1210 C   0  0  1  0  0  0  0  0  0  0  0  0
   11.5210  -33.2030  -31.6960 C   0  0  1  0  0  0  0  0  0  0  0  0
   11.7900  -33.3300  -32.6630 C   0  0  0  0  0  0  0  0  0  0  0  0
    7.8840  -33.7950  -33.1830 N   0  0  0  0  0  0  0  0  0  0  0  0
    5.9520  -34.6030  -34.3960 C   0  0  1  0  0  0  0  0  0  0  0  0
   10.3990  -34.7040  -31.3830 C   0  0  2  0  0  0  0  0  0  0  0  0
  2 16  1  0
  2  4  1  1
  2 11  1  0
  3  1  1  0
 17  3  1  6
  5 14  1  0
 21  6  1  6
  7 18  1  1
  7 22  1  0
  7  8  1  0
  9  3  1  0
  9 10  1  0
 11 21  1  0
 11 20  2  3
 12 19  1  0
 16 14  1  0
 17  7  1  0
 17 22  1  0
 17 15  1  0
  8 18  1  1
 18 19  1  6
 20 10  1  0
 21 13  1  0
 22  8  1  0
 22 15  1  1
M  END
$$$$

     RDKit          3D

 16 17  0  0  0  0  0  0  0  0999 V2000
    6.0430  -32.3650  -32.7500 C   0  0  0  0  0  0  0  0  0  0  0  0
    4.6600  -34.9530  -35.4650 C   0  0  0  0  0  0  0  0  0  0  0  0
    3.0950  -32.9490  -33.3350 N   0  0  0  0  0  0  0  0  0  0  0  0
    9.1010  -34.8600  -34.1300 O   0  0  0  0  0  0  0  0  0  0  0  0
    9.0750  -34.1550  -33.1440 C   0  0  0  0  0  0  0  0  0  0  0  0
   10.0620  -34.0000  -32.2730 N   0  0  0  0  0  0  0  0  0  0  0  0
    3.9600  -33.3760  -33.7890 C   0  0  0  0  0  0  0  0  0  0  0  0
    6.1740  -34.1390  -34.2360 N   0  0  0  0  0  0  0  0  0  0  0  0
    4.9510  -34.0500  -34.4440 C   0  0  0  0  0  0  0  0  0  0  0  0
    6.5520  -35.2660  -35.0990 C   0  0  0  0  0  0  0  0  0  0  0  0
    5.5830  -35.6750  -35.8240 C   0  0  0  0  0  0  0  0  0  0  0  0
   10.5190  -32.6210  -30.0200 C   0  0  0  0  0  0  0  0  0  0  0  0
    7.7970  -32.1810  -32.2720 O   0  0  0  0  0  0  0  0  0  0  0  0
    6.7290  -33.3370  -33.3960 C   0  0  0  0  0  0  0  0  0  0  0  0
   10.0600  -33.2470  -31.3080 C   0  0  0  0  0  0  0  0  0  0  0  0
    7.9210  -33.3070  -32.9180 C   0  0  0  0  0  0  0  0  0  0  0  0
  1 13  1  0
  2  9  2  0
  4  5  2  0
  5 16  1  0
  5  6  1  0
  6 15  1  0
  7  3  3  0
  8 14  1  0
  9  8  1  0
  9  7  1  0
 10  8  1  0
 11  2  1  0
 11 10  2  0
 14 16  2  0
 14  1  1  0
 15 12  1  0
 16 13  1  0
M  END
$$$$

     RDKit          3D

 17 21  0  0  0  0  0  0  0  0999 V2000
   10.7260  -33.6960  -32.2440 C   0  0  0  0  0  0  0  0  0  0  0  0
    8.7760  -34.0080  -33.2320 C   0  0  2  0  0  0  0  0  0  0  0  0
    8.8390  -32.6810  -31.4360 C   0  0  0  0  0  0  0  0  0  0  0  0
    6.4100  -33.5800  -33.6040 C   0  0  0  0  0  0  0  0  0  0  0  0
   11.4830  -34.0460  -32.5920 C   0  0  0  0  0  0  0  0  0  0  0  0
    8.4590  -33.3730  -32.7990 C   0  0  2  0  0  0  0  0  0  0  0  0
   11.0310  -32.8970  -30.1720 C   0  0  0  0  0  0  0  0  0  0  0  0
    7.1310  -35.0800  -35.0620 C   0  0  0  0  0  0  0  0  0  0  0  0
   11.6890  -33.5730  -30.3350 C   0  0  0  0  0  0  0  0  0  0  0  0
    7.1990  -32.9790  -32.6580 C   0  0  0  0  0  0  0  0  0  0  0  0
    9.7820  -33.4100  -31.9490 C   0  0  1  0  0  0  0  0  0  0  0  0
   10.0000  -34.0090  -33.0720 C   0  0  0  0  0  0  0  0  0  0  0  0
    7.7000  -33.6300  -33.3840 C   0  0  0  0  0  0  0  0  0  0  0  0
   10.0820  -33.2780  -31.0950 C   0  0  1  0  0  0  0  0  0  0  0  0
    6.2180  -34.3240  -34.5050 C   0  0  0  0  0  0  0  0  0  0  0  0
    8.0600  -34.6970  -34.2210 N   0  0  0  0  0  0  0  0  0  0  0  0
   11.6500  -33.7340  -31.0820 C   0  0  0  0  0  0  0  0  0  0  0  0
  1  5  1  0
  1 11  1  0
  2 16  1  0
  2  6  1  0
  6 13  1  6
  6 10  1  0
  8 15  1  0
  8 16  1  0
  9  7  1  0
 10  4  1  0
 11  3  1  6
 11 14  1  0
  2 12  1  6
 12  1  1  0
 12 11  1  0
 13 10  1  0
 14 17  1  0
 14  7  1  6
 15  4  2  0
 17  5  1  0
 17  9  1  0
M  END
$$$$

     RDKit          3D

 23 26  0  0  0  0  0  0  0  0999 V2000
    8.6690  -35.2390  -34.0410 C   0  0  0  0  0  0  0  0  0  0  0  0
   10.3640  -34.3130  -32.1750 C   0  0  2  0  0  0  0  0  0  0  0  0
    6.1340  -32.1360  -32.1350 C   0  0  0  0  0  0  0  0  0  0  0  0
    6.0660  -32.7830  -32.9460 C   0  0  0  0  0  0  0  0  0  0  0  0
   11.8530  -32.9350  -29.4810 O   0  0  0  0  0  0  0  0  0  0  0  0
    5.4450  -34.3350  -34.7320 C   0  0  0  0  0  0  0  0  0  0  0  0
    4.3080  -35.7310  -36.0850 C   0  0  0  0  0  0  0  0  0  0  0  0
   10.9070  -35.2600  -32.9080 C   0  0  0  0  0  0  0  0  0  0  0  0
    4.3450  -33.5340  -34.5590 C   0  0  0  0  0  0  0  0  0  0  0  0
    4.5410  -32.6890  -33.4130 C   0  0  0  0  0  0  0  0  0  0  0  0
    5.6220  -35.2660  -35.5870 N   0  0  0  0  0  0  0  0  0  0  0  0
    8.0120  -35.6820  -34.9810 O   0  0  0  0  0  0  0  0  0  0  0  0
    5.9390  -31.2860  -31.2200 O   0  0  0  0  0  0  0  0  0  0  0  0
   11.8300  -33.4790  -30.4660 C   0  0  0  0  0  0  0  0  0  0  0  0
   10.4010  -33.4260  -31.1300 C   0  0  2  0  0  0  0  0  0  0  0  0
    8.2230  -33.4070  -32.2020 C   0  0  2  0  0  0  0  0  0  0  0  0
    9.1940  -34.2360  -31.8630 C   0  0  1  0  0  0  0  0  0  0  0  0
   10.0600  -35.7000  -34.0860 C   0  0  0  0  0  0  0  0  0  0  0  0
    7.9420  -34.2060  -33.3970 C   0  0  0  0  0  0  0  0  0  0  0  0
   12.1130  -31.5680  -28.9640 C   0  0  0  0  0  0  0  0  0  0  0  0
    8.6480  -32.3550  -31.4140 C   0  0  0  0  0  0  0  0  0  0  0  0
    6.5270  -33.9080  -33.7400 C   0  0  0  0  0  0  0  0  0  0  0  0
    9.8250  -32.2970  -30.6660 C   0  0  0  0  0  0  0  0  0  0  0  0
  1 19  1  0
  2  8  1  1
  2 17  1  0
  2 15  1  0
  3 13  2  0
  4  3  2  0
  5 20  1  0
  6  9  2  0
  6 22  1  0
  7 11  1  0
  9 10  1  0
 10  4  1  0
 11  6  1  0
 12  1  2  0
 14  5  1  0
 15 23  1  0
 15 14  1  1
 17 16  1  6
 16 21  1  6
 17 15  1  0
 18  1  1  0
 18  8  1  0
 19 16  1  0
 21 23  1  0
 22 19  2  3
 22  4  1  0
M  END
$$$$

     RDKit          3D

 33 36  0  0  0  0  0  0  0  0999 V2000
   10.6550  -33.2940  -31.3280 C   0  0  1  0  0  0  0  0  0  0  0  0
   11.0930  -34.3820  -33.1460 C   0  0  1  0  0  0  0  0  0  0  0  0
    7.0850  -33.1260  -33.0410 C   0  0  0  0  0  0  0  0  0  0  0  0
   10.6040  -35.9880  -34.9820 C   0  0  0  0  0  0  0  0  0  0  0  0
   11.6510  -31.3000  -29.2010 O   0  0  0  0  0  0  0  0  0  0  0  0
    8.2190  -32.7500  -32.0760 C   0  0  0  0  0  0  0  0  0  0  0  0
    9.1650  -35.5590  -35.1250 C   0  0  0  0  0  0  0  0  0  0  0  0
    7.4420  -34.2210  -33.9720 C   0  0  0  0  0  0  0  0  0  0  0  0
    2.4340  -33.6050  -39.8920 F   0  0  0  0  0  0  0  0  0  0  0  0
    5.0050  -34.5370  -34.3620 C   0  0  0  0  0  0  0  0  0  0  0  0
   11.7240  -35.2520  -34.1940 C   0  0  0  0  0  0  0  0  0  0  0  0
    9.5340  -34.5610  -32.9190 C   0  0  1  0  0  0  0  0  0  0  0  0
    6.4120  -35.0360  -34.5280 C   0  0  0  0  0  0  0  0  0  0  0  0
    3.4140  -32.7460  -37.9160 C   0  0  0  0  0  0  0  0  0  0  0  0
   12.8000  -33.4760  -29.0220 O   0  0  0  0  0  0  0  0  0  0  0  0
    1.7940  -32.2130  -35.6390 O   0  0  0  0  0  0  0  0  0  0  0  0
    9.4730  -35.8000  -32.3000 C   0  0  0  0  0  0  0  0  0  0  0  0
   11.8350  -32.6420  -29.6490 C   0  0  0  0  0  0  0  0  0  0  0  0
    2.6410  -35.0000  -38.2190 F   0  0  0  0  0  0  0  0  0  0  0  0
   10.4990  -33.3430  -30.0530 C   0  0  0  0  0  0  0  0  0  0  0  0
    3.2230  -33.9520  -38.8370 C   0  0  1  0  0  0  0  0  0  0  0  0
    2.4780  -33.2900  -35.0150 C   0  0  2  0  0  0  0  0  0  0  0  0
    3.5380  -32.7700  -34.2040 N   0  0  0  0  0  0  0  0  0  0  0  0
   11.7040  -33.4670  -32.1350 C   0  0  0  0  0  0  0  0  0  0  0  0
    3.0200  -34.1960  -36.0250 C   0  0  0  0  0  0  0  0  0  0  0  0
   13.6910  -32.9830  -27.9150 C   0  0  0  0  0  0  0  0  0  0  0  0
    5.7970  -32.6310  -33.2040 C   0  0  0  0  0  0  0  0  0  0  0  0
    9.4220  -33.4820  -32.0810 N   0  0  0  0  0  0  0  0  0  0  0  0
    7.9990  -31.8710  -31.2390 O   0  0  0  0  0  0  0  0  0  0  0  0
    4.7410  -33.3300  -33.9690 C   0  0  0  0  0  0  0  0  0  0  0  0
    4.0840  -33.1920  -36.7120 N   0  0  0  0  0  0  0  0  0  0  0  0
    4.4080  -34.3180  -39.4060 F   0  0  0  0  0  0  0  0  0  0  0  0
    8.9130  -34.4380  -34.1990 C   0  0  1  0  0  0  0  0  0  0  0  0
  1 20  1  1
  2 11  1  1
  2 12  1  0
  2 24  1  0
  3  6  1  0
  4 11  1  0
  6 29  2  0
  7  4  1  0
  8  3  2  0
 21  9  1  6
 10 30  1  0
 12 17  1  1
 12 28  1  0
 13 10  2  0
 13  8  1  0
 14 31  1  0
 15 26  1  0
 18  5  2  0
 18 15  1  0
 20 18  1  0
 21 19  1  0
 21 14  1  0
 22 16  1  6
 22 23  1  0
 23 30  1  0
 24  1  1  0
 25 22  1  0
 27  3  1  0
 28  6  1  0
 28  1  1  0
 30 27  2  0
 31 25  1  0
 32 21  1  0
 33  7  1  6
 33  8  1  0
 33 12  1  0
M  END
$$$$

     RDKit          3D

 29 35  0  0  0  0  0  0  0  0999 V2000
   11.1830  -33.9510  -27.0120 O   0  0  0  0  0  0  0  0  0  0  0  0
   11.8000  -33.6230  -33.1950 O   0  0  0  0  0  0  0  0  0  0  0  0
    8.8100  -35.5560  -34.2000 C   0  0  0  0  0  0  0  0  0  0  0  0
    9.0300  -34.0110  -33.6060 C   0  0  2  0  0  0  0  0  0  0  0  0
   11.4900  -34.5530  -33.6410 C   0  0  0  0  0  0  0  0  0  0  0  0
    7.7810  -34.5550  -34.0700 N   0  0  0  0  0  0  0  0  0  0  0  0
   12.5630  -33.2890  -30.5300 N   0  0  0  0  0  0  0  0  0  0  0  0
   10.8640  -34.3790  -31.6270 C   0  0  2  0  0  0  0  0  0  0  0  0
   10.8980  -35.5770  -33.3200 C   0  0  0  0  0  0  0  0  0  0  0  0
    5.3490  -34.1110  -33.9660 C   0  0  0  0  0  0  0  0  0  0  0  0
   11.6240  -32.7310  -29.9450 C   0  0  0  0  0  0  0  0  0  0  0  0
    4.5790  -33.6330  -33.3520 C   0  0  0  0  0  0  0  0  0  0  0  0
   13.4030  -33.1300  -27.7250 C   0  0  0  0  0  0  0  0  0  0  0  0
    9.8620  -34.2690  -32.0060 C   0  0  1  0  0  0  0  0  0  0  0  0
   10.7170  -35.0660  -34.7740 C   0  0  0  0  0  0  0  0  0  0  0  0
    4.6650  -32.4140  -32.1980 C   0  0  0  0  0  0  0  0  0  0  0  0
   10.0200  -33.3550  -31.5530 C   0  0  2  0  0  0  0  0  0  0  0  0
   12.1740  -32.5200  -28.5110 N   0  0  0  0  0  0  0  0  0  0  0  0
    8.7950  -32.7570  -31.5460 C   0  0  0  0  0  0  0  0  0  0  0  0
   10.3330  -35.2470  -33.6890 C   0  0  0  0  0  0  0  0  0  0  0  0
    7.0360  -32.7210  -32.9380 C   0  0  0  0  0  0  0  0  0  0  0  0
    6.6400  -34.1180  -34.0740 C   0  0  0  0  0  0  0  0  0  0  0  0
   10.4730  -32.9060  -30.3040 C   0  0  0  0  0  0  0  0  0  0  0  0
   11.3580  -32.6030  -27.6010 C   0  0  0  0  0  0  0  0  0  0  0  0
   13.9380  -32.8790  -26.5300 C   0  0  0  0  0  0  0  0  0  0  0  0
    5.7600  -32.1010  -32.0150 C   0  0  0  0  0  0  0  0  0  0  0  0
    9.3830  -35.0120  -33.2000 C   0  0  1  0  0  0  0  0  0  0  0  0
    8.4950  -32.9010  -32.8070 C   0  0  2  0  0  0  0  0  0  0  0  0
   12.5550  -34.0080  -31.6770 C   0  0  1  0  0  0  0  0  0  0  0  0
 29  2  1  6
  3  6  1  0
 27  3  1  1
  4  6  1  6
  4 27  1  0
  4 28  1  0
  5  9  1  0
  5  2  1  0
  7 11  2  0
  8 17  1  0
 10 12  1  0
 11 18  1  0
 12 16  2  0
 13 25  2  0
 14  8  1  0
 14 17  1  6
 15 20  2  0
 16 26  1  0
 17 19  1  1
 17 23  1  0
 18 13  1  0
 18 24  1  0
 20  9  1  0
 20 27  1  0
 21 28  1  0
 21 26  2  0
 22  6  1  0
 22 10  2  0
 22 21  1  0
 23 11  1  0
 24  1  1  0
 27 14  1  0
 28 19  1  1
  8 29  1  6
 29  7  1  0
M  END
$$$$

     RDKit          3D

 20 23  0  0  0  0  0  0  0  0999 V2000
    6.8670  -34.5170  -34.3390 C   0  0  0  0  0  0  0  0  0  0  0  0
    7.9110  -35.0910  -35.1860 C   0  0  0  0  0  0  0  0  0  0  0  0
    7.9890  -33.6620  -33.0120 C   0  0  0  0  0  0  0  0  0  0  0  0
    7.3230  -31.7540  -31.6770 C   0  0  0  0  0  0  0  0  0  0  0  0
   10.3440  -35.6460  -34.8630 S   0  0  0  0  0  0  0  0  0  0  0  0
    8.5900  -35.2930  -34.0390 C   0  0  2  0  0  0  0  0  0  0  0  0
    5.7640  -32.9170  -33.2840 C   0  0  0  0  0  0  0  0  0  0  0  0
    5.2650  -34.7090  -34.9610 C   0  0  0  0  0  0  0  0  0  0  0  0
    9.3110  -32.7120  -32.2920 C   0  0  1  0  0  0  0  0  0  0  0  0
   10.2000  -33.9720  -31.5040 C   0  0  0  0  0  0  0  0  0  0  0  0
    9.7390  -33.5600  -32.4290 C   0  0  1  0  0  0  0  0  0  0  0  0
    5.7910  -33.9800  -34.1190 C   0  0  0  0  0  0  0  0  0  0  0  0
    7.0500  -32.5750  -32.7610 C   0  0  0  0  0  0  0  0  0  0  0  0
    8.6300  -32.3100  -31.2870 C   0  0  2  0  0  0  0  0  0  0  0  0
    9.0120  -34.0310  -33.3350 C   0  0  0  0  0  0  0  0  0  0  0  0
    8.0440  -34.4540  -33.8930 C   0  0  0  0  0  0  0  0  0  0  0  0
    9.0470  -34.0120  -33.2290 C   0  0  0  0  0  0  0  0  0  0  0  0
    9.8430  -35.4410  -33.7440 C   0  0  2  0  0  0  0  0  0  0  0  0
    9.9800  -33.1140  -31.4260 C   0  0  1  0  0  0  0  0  0  0  0  0
   10.3860  -34.4500  -33.4600 C   0  0  0  0  0  0  0  0  0  0  0  0
  1 12  2  3
  1 16  1  0
 14  4  1  6
 18  5  1  6
  6  2  1  6
  6 16  1  0
  6 18  1  0
  7 13  1  0
  8 12  1  0
  9 19  1  0
  9 14  1  1
 19 10  1  6
 11  9  1  0
 11 10  1  1
 11 19  1  0
 12  7  1  0
 13  4  1  0
 15  3  1  0
 16 15  1  0
 17 11  1  0
 18 20  1  0
 19 14  1  0
 20 17  1  0
M  END
$$$$

     RDKit          3D

 19 22  0  0  0  0  0  0  0  0999 V2000
   10.7270  -34.8290  -34.1450 C   0  0  0  0  0  0  0  0  0  0  0  0
   10.2670  -33.5200  -32.1370 C   0  0  2  0  0  0  0  0  0  0  0  0
   11.8460  -33.5410  -32.4540 C   0  0  0  0  0  0  0  0  0  0  0  0
    8.1910  -35.5100  -34.9180 F   0  0  0  0  0  0  0  0  0  0  0  0
    5.9540  -33.3180  -33.7380 C   0  0  0  0  0  0  0  0  0  0  0  0
    5.7830  -34.9700  -35.4800 O   0  0  0  0  0  0  0  0  0  0  0  0
    8.3460  -33.8550  -33.5230 C   0  0  1  0  0  0  0  0  0  0  0  0
    8.0660  -33.1290  -32.5220 C   0  0  1  0  0  0  0  0  0  0  0  0
    9.4860  -34.8890  -33.0220 C   0  0  0  0  0  0  0  0  0  0  0  0
   10.6050  -32.8760  -29.8750 F   0  0  0  0  0  0  0  0  0  0  0  0
   11.8350  -34.2710  -33.4810 C   0  0  0  0  0  0  0  0  0  0  0  0
    5.1550  -31.6460  -31.0310 C   0  0  0  0  0  0  0  0  0  0  0  0
    6.1010  -31.8780  -31.9830 O   0  0  0  0  0  0  0  0  0  0  0  0
    9.9550  -33.0180  -31.1300 C   0  0  0  0  0  0  0  0  0  0  0  0
    6.6880  -32.8460  -32.7750 C   0  0  0  0  0  0  0  0  0  0  0  0
    6.4130  -34.3930  -34.4760 C   0  0  0  0  0  0  0  0  0  0  0  0
    9.5550  -34.0110  -32.7980 C   0  0  1  0  0  0  0  0  0  0  0  0
    7.7560  -34.7250  -34.2410 C   0  0  0  0  0  0  0  0  0  0  0  0
    8.6670  -32.5210  -31.3700 C   0  0  0  0  0  0  0  0  0  0  0  0
  1 11  1  0
  1  9  1  0
  2  3  1  1
  2 14  1  0
  4 18  1  0
  5 15  2  0
  6 16  1  0
  7 18  1  1
  7 17  1  0
  7  8  1  0
  8 19  1  6
 11  3  1  0
 13 12  1  0
 14 10  1  0
 15  8  1  0
 15 13  1  0
 16 18  2  0
 16  5  1  0
 17  9  1  1
 17  8  1  0
 17  2  1  0
 19 14  1  0
M  END
$$$$

     RDKit          3D

 35 39  0  0  0  0  0  0  0  0999 V2000
    6.3350  -33.2470  -33.1960 C   0  0  1  0  0  0  0  0  0  0  0  0
   13.0560  -32.8150  -28.8450 C   0  0  0  0  0  0  0  0  0  0  0  0
    2.1580  -33.7410  -38.2240 O   0  0  0  0  0  0  0  0  0  0  0  0
    1.1840  -36.0180  -37.8950 O   0  0  0  0  0  0  0  0  0  0  0  0
    3.3280  -35.0980  -37.1540 O   0  0  0  0  0  0  0  0  0  0  0  0
    8.9020  -35.8010  -35.0660 C   0  0  0  0  0  0  0  0  0  0  0  0
    7.8380  -34.8140  -34.1220 C   0  0  0  0  0  0  0  0  0  0  0  0
    5.5190  -34.2360  -33.7140 O   0  0  0  0  0  0  0  0  0  0  0  0
   10.0620  -34.2320  -33.2220 C   0  0  1  0  0  0  0  0  0  0  0  0
    3.6740  -32.7600  -33.2300 C   0  0  0  0  0  0  0  0  0  0  0  0
    8.7750  -33.1330  -32.6240 C   0  0  1  0  0  0  0  0  0  0  0  0
    4.5410  -32.3620  -32.3410 C   0  0  0  0  0  0  0  0  0  0  0  0
    7.6050  -33.7990  -33.2710 C   0  0  1  0  0  0  0  0  0  0  0  0
   13.0960  -33.4290  -31.6070 O   0  0  0  0  0  0  0  0  0  0  0  0
    1.1530  -34.5030  -36.1080 N   0  0  0  0  0  0  0  0  0  0  0  0
    5.2570  -31.9880  -31.3600 O   0  0  0  0  0  0  0  0  0  0  0  0
   10.3600  -34.5240  -33.9800 C   0  0  2  0  0  0  0  0  0  0  0  0
   10.2610  -35.6230  -34.8390 C   0  0  0  0  0  0  0  0  0  0  0  0
    3.7310  -33.5870  -35.3210 C   0  0  0  0  0  0  0  0  0  0  0  0
    6.5750  -32.0120  -33.1040 C   0  0  0  0  0  0  0  0  0  0  0  0
   11.8930  -34.0280  -33.4500 S   0  0  0  0  0  0  0  0  0  0  0  0
    4.2370  -34.7480  -36.1850 C   0  0  0  0  0  0  0  0  0  0  0  0
   10.0700  -32.8690  -30.1480 C   0  0  0  0  0  0  0  0  0  0  0  0
   11.9210  -33.1500  -29.7900 C   0  0  1  0  0  0  0  0  0  0  0  0
    9.0000  -32.7490  -31.1290 C   0  0  0  0  0  0  0  0  0  0  0  0
    4.2540  -33.7710  -34.0430 C   0  0  1  0  0  0  0  0  0  0  0  0
   11.8710  -33.5070  -31.2610 C   0  0  0  0  0  0  0  0  0  0  0  0
    1.9750  -34.7290  -37.2870 S   0  0  1  0  0  0  0  0  0  0  0  0
   11.3870  -32.0920  -27.3730 O   0  0  0  0  0  0  0  0  0  0  0  0
    6.4620  -31.4510  -31.7740 C   0  0  2  0  0  0  0  0  0  0  0  0
   10.5450  -33.3990  -29.5720 C   0  0  0  0  0  0  0  0  0  0  0  0
    7.7670  -31.7870  -30.8270 C   0  0  0  0  0  0  0  0  0  0  0  0
    5.2690  -35.3220  -36.0180 O   0  0  0  0  0  0  0  0  0  0  0  0
   11.1660  -33.8750  -31.8490 C   0  0  1  0  0  0  0  0  0  0  0  0
   12.1630  -32.3280  -27.8450 C   0  0  0  0  0  0  0  0  0  0  0  0
  1 20  1  0
  2 35  1  0
  3 28  1  0
  4 28  1  0
  5 22  1  0
  6 18  1  0
  6  7  2  0
 13  7  1  6
  1  8  1  6
  9 11  1  0
  9 34  1  6
 10 12  1  0
 11 25  1  1
 12 16  1  0
 13  1  1  0
 13 11  1  0
 14 27  2  0
 17 21  1  0
 17  9  1  0
 17 18  1  1
 26 19  1  6
 20 30  1  0
 34 21  1  6
 22 33  2  0
 22 19  1  0
 23 31  1  0
 24 31  1  0
 24  2  1  1
 25 32  2  0
 25 23  1  0
 26  8  1  0
 26 10  1  0
 27 24  1  0
 28  5  1  0
 28 15  1  1
 30 16  1  1
 30 32  1  0
 34 27  1  0
 35 29  1  0
M  END
$$$$

     RDKit          3D

 17 20  0  0  0  0  0  0  0  0999 V2000
   10.2370  -34.6340  -32.1960 C   0  0  2  0  0  0  0  0  0  0  0  0
    9.2010  -32.7210  -31.3310 C   0  0  0  0  0  0  0  0  0  0  0  0
    6.8100  -34.8580  -34.7770 C   0  0  0  0  0  0  0  0  0  0  0  0
    9.0460  -33.7390  -32.3590 C   0  0  2  0  0  0  0  0  0  0  0  0
    4.3070  -34.7270  -35.2430 C   0  0  0  0  0  0  0  0  0  0  0  0
    8.8890  -35.7520  -34.1480 C   0  0  0  0  0  0  0  0  0  0  0  0
    7.0160  -34.0760  -33.6640 C   0  0  0  0  0  0  0  0  0  0  0  0
    6.2170  -35.2930  -37.1400 C   0  0  0  0  0  0  0  0  0  0  0  0
    8.2010  -34.0480  -32.9670 C   0  0  0  0  0  0  0  0  0  0  0  0
    5.8020  -34.8280  -35.6590 N   0  0  0  0  0  0  0  0  0  0  0  0
   10.8160  -34.0710  -31.1840 C   0  0  0  0  0  0  0  0  0  0  0  0
   10.2970  -32.8400  -30.6130 C   0  0  0  0  0  0  0  0  0  0  0  0
    7.7890  -35.8200  -34.8930 C   0  0  0  0  0  0  0  0  0  0  0  0
    9.1750  -34.6810  -33.3350 C   0  0  1  0  0  0  0  0  0  0  0  0
    7.1040  -32.4120  -32.2600 C   0  0  0  0  0  0  0  0  0  0  0  0
    8.4040  -33.1680  -32.0780 C   0  0  2  0  0  0  0  0  0  0  0  0
    6.4190  -33.0960  -33.2350 N   0  0  0  0  0  0  0  0  0  0  0  0
  1 11  1  6
  2 12  1  0
  3  7  2  3
  4  9  1  1
  4  1  1  0
  4 16  1  0
  7 17  1  0
  8 10  1  0
 10  5  1  0
 10  3  1  0
 11 12  1  0
 13  3  1  0
 13  6  2  3
 14  6  1  0
 14  9  1  6
 14  4  1  0
 14  1  1  0
 16 15  1  6
 16  2  1  0
 17 15  1  0
M  END
$$$$

     RDKit          3D

 39 45  0  0  0  0  0  0  0  0999 V2000
    2.4010  -35.1000  -37.0100 C   0  0  0  0  0  0  0  0  0  0  0  0
   13.5750  -33.7520  -33.6030 C   0  0  0  0  0  0  0  0  0  0  0  0
    2.2180  -31.5880  -32.1180 C   0  0  0  0  0  0  0  0  0  0  0  0
   11.4500  -32.5810  -28.0480 C   0  0  0  0  0  0  0  0  0  0  0  0
    3.7970  -34.1420  -35.0480 N   0  0  0  0  0  0  0  0  0  0  0  0
    9.9580  -32.2760  -30.0500 N   0  0  0  0  0  0  0  0  0  0  0  0
   11.4270  -34.3160  -33.3700 C   0  0  0  0  0  0  0  0  0  0  0  0
    4.7070  -33.7230  -34.0960 C   0  0  0  0  0  0  0  0  0  0  0  0
    4.3540  -34.5800  -38.3200 C   0  0  0  0  0  0  0  0  0  0  0  0
    4.3990  -32.4090  -31.7000 C   0  0  0  0  0  0  0  0  0  0  0  0
   13.8370  -34.9060  -34.2240 N   0  0  0  0  0  0  0  0  0  0  0  0
   12.3560  -33.2840  -33.2100 C   0  0  0  0  0  0  0  0  0  0  0  0
   10.0950  -34.0700  -32.7990 O   0  0  0  0  0  0  0  0  0  0  0  0
   11.5660  -35.3710  -34.1220 C   0  0  0  0  0  0  0  0  0  0  0  0
    4.2030  -32.0700  -30.3520 C   0  0  0  0  0  0  0  0  0  0  0  0
    4.6540  -34.8800  -35.7570 C   0  0  1  0  0  0  0  0  0  0  0  0
    7.7440  -34.9440  -34.0760 C   0  0  0  0  0  0  0  0  0  0  0  0
    9.4340  -36.4860  -34.2870 C   0  0  0  0  0  0  0  0  0  0  0  0
    2.0040  -31.3240  -30.8550 N   0  0  0  0  0  0  0  0  0  0  0  0
    6.9300  -35.4920  -36.4760 N   0  0  0  0  0  0  0  0  0  0  0  0
    8.1450  -32.3230  -31.4680 C   0  0  1  0  0  0  0  0  0  0  0  0
    3.4260  -32.1330  -32.6430 C   0  0  0  0  0  0  0  0  0  0  0  0
    5.6190  -33.0960  -32.1300 C   0  0  1  0  0  0  0  0  0  0  0  0
   12.8050  -35.6790  -34.4970 C   0  0  0  0  0  0  0  0  0  0  0  0
    8.4770  -35.8120  -34.8980 C   0  0  2  0  0  0  0  0  0  0  0  0
   12.1270  -33.0230  -30.3330 O   0  0  0  0  0  0  0  0  0  0  0  0
    2.9940  -31.6740  -29.9240 C   0  0  0  0  0  0  0  0  0  0  0  0
    3.8900  -35.4080  -36.9870 C   0  0  1  0  0  0  0  0  0  0  0  0
    7.8500  -32.4540  -32.7870 O   0  0  0  0  0  0  0  0  0  0  0  0
    5.6620  -33.8220  -33.4700 N   0  0  0  0  0  0  0  0  0  0  0  0
    6.4980  -34.6340  -34.3430 C   0  0  0  0  0  0  0  0  0  0  0  0
    8.1390  -35.6890  -36.2570 C   0  0  0  0  0  0  0  0  0  0  0  0
    6.0080  -35.0110  -35.5690 C   0  0  0  0  0  0  0  0  0  0  0  0
   10.0430  -33.5600  -31.9100 N   0  0  0  0  0  0  0  0  0  0  0  0
    7.0350  -32.8570  -31.6440 C   0  0  1  0  0  0  0  0  0  0  0  0
    9.5290  -32.6890  -31.0990 C   0  0  0  0  0  0  0  0  0  0  0  0
   11.2170  -32.6430  -29.6510 C   0  0  0  0  0  0  0  0  0  0  0  0
   10.6340  -36.3190  -34.5240 C   0  0  0  0  0  0  0  0  0  0  0  0
    7.3520  -31.8070  -30.5740 C   0  0  0  0  0  0  0  0  0  0  0  0
 28  1  1  1
  2 12  2  0
  3 19  2  0
  5  8  1  0
  6 37  1  0
  7 12  1  0
  7 13  1  0
  8 30  1  0
  9 28  1  0
 10 15  1  0
 11  2  1  0
 13 34  1  0
 14  7  2  0
 15 27  2  0
 16 28  1  0
 16 33  1  0
 16  5  1  6
 19 27  1  0
 20 32  1  0
 20 33  2  0
 21 36  1  0
 21 39  1  1
 22  3  1  0
 22 10  2  0
 23 10  1  6
 23 35  1  0
 24 11  2  0
 24 14  1  0
 25 32  1  6
 25 18  1  0
 25 17  1  0
 26 37  2  0
 29 35  1  0
 29 21  1  0
 30 23  1  0
 31 17  2  0
 31 30  1  0
 33 31  1  0
 34 36  2  3
 35 21  1  0
 35 39  1  6
 36  6  1  0
 37  4  1  0
 38 18  1  0
 38 14  1  0
M  END
$$$$

     RDKit          3D

 17 20  0  0  0  0  0  0  0  0999 V2000
    8.3110  -35.1090  -34.0800 C   0  0  2  0  0  0  0  0  0  0  0  0
    7.4910  -34.0410  -33.7910 C   0  0  2  0  0  0  0  0  0  0  0  0
    6.2740  -32.4830  -32.7810 C   0  0  0  0  0  0  0  0  0  0  0  0
    8.6460  -33.7850  -33.0470 C   0  0  1  0  0  0  0  0  0  0  0  0
    9.3460  -35.5430  -34.1210 C   0  0  0  0  0  0  0  0  0  0  0  0
    8.0390  -35.8690  -34.3910 C   0  0  0  0  0  0  0  0  0  0  0  0
   10.8350  -33.5500  -31.4610 C   0  0  0  0  0  0  0  0  0  0  0  0
   10.2000  -35.9960  -34.8040 O   0  0  0  0  0  0  0  0  0  0  0  0
    7.3710  -32.1820  -31.9550 C   0  0  0  0  0  0  0  0  0  0  0  0
    8.5860  -32.9160  -32.1120 C   0  0  0  0  0  0  0  0  0  0  0  0
   10.8670  -34.2400  -32.6590 C   0  0  0  0  0  0  0  0  0  0  0  0
   11.3750  -33.6270  -30.5890 O   0  0  0  0  0  0  0  0  0  0  0  0
    9.7040  -32.8390  -31.3220 C   0  0  0  0  0  0  0  0  0  0  0  0
    6.6740  -35.8990  -34.6860 C   0  0  0  0  0  0  0  0  0  0  0  0
    6.3520  -33.5120  -33.6650 C   0  0  0  0  0  0  0  0  0  0  0  0
    9.4740  -32.1530  -30.3230 O   0  0  0  0  0  0  0  0  0  0  0  0
    9.9310  -34.8310  -33.2390 C   0  0  1  0  0  0  0  0  0  0  0  0
  1  6  1  1
  1  2  1  0
  1  4  1  0
  2 15  1  1
  2  4  1  0
  3  9  1  0
  4 10  1  1
  5  1  1  0
  5 17  1  0
  7 13  1  0
  7 12  2  0
  8  5  2  0
 10  9  2  0
 10 13  1  0
 11  7  1  0
 13 16  2  0
 14  6  1  0
 15  3  2  0
 17  4  1  0
 17 11  1  6
M  END
$$$$

     RDKit          3D

 39 45  0  0  0  0  0  0  0  0999 V2000
    6.6820  -34.4970  -34.2770 N   0  0  0  0  0  0  0  0  0  0  0  0
    7.1360  -32.4040  -32.0490 C   0  0  0  0  0  0  0  0  0  0  0  0
   12.5310  -33.4290  -31.2110 C   0  0  0  0  0  0  0  0  0  0  0  0
    4.7070  -33.7210  -34.4140 O   0  0  0  0  0  0  0  0  0  0  0  0
    5.6430  -31.3020  -31.1530 N   0  0  0  0  0  0  0  0  0  0  0  0
   12.8600  -36.0510  -33.0630 C   0  0  0  0  0  0  0  0  0  0  0  0
   10.6860  -32.9070  -29.2390 C   0  0  0  0  0  0  0  0  0  0  0  0
   -0.6950  -30.7870  -29.9860 C   0  0  0  0  0  0  0  0  0  0  0  0
   -1.7880  -31.1810  -29.6290 C   0  0  0  0  0  0  0  0  0  0  0  0
    5.7170  -33.5890  -33.8490 C   0  0  0  0  0  0  0  0  0  0  0  0
    8.3580  -33.0210  -32.1880 C   0  0  0  0  0  0  0  0  0  0  0  0
    8.7220  -34.0320  -33.0260 C   0  0  0  0  0  0  0  0  0  0  0  0
   10.3600  -36.9740  -34.0370 O   0  0  0  0  0  0  0  0  0  0  0  0
   -1.0820  -29.8870  -31.0170 O   0  0  0  0  0  0  0  0  0  0  0  0
   12.2180  -31.3140  -28.2860 F   0  0  0  0  0  0  0  0  0  0  0  0
   10.3960  -33.7920  -30.2610 C   0  0  0  0  0  0  0  0  0  0  0  0
    3.6760  -32.4690  -31.6200 C   0  0  1  0  0  0  0  0  0  0  0  0
   12.4500  -34.1960  -34.2700 C   0  0  0  0  0  0  0  0  0  0  0  0
   11.8960  -32.2450  -29.2400 C   0  0  0  0  0  0  0  0  0  0  0  0
   11.2160  -33.9050  -31.3030 C   0  0  0  0  0  0  0  0  0  0  0  0
    5.9600  -32.7380  -32.7230 C   0  0  0  0  0  0  0  0  0  0  0  0
    7.9680  -34.6650  -33.8850 C   0  0  0  0  0  0  0  0  0  0  0  0
    6.8550  -31.4160  -31.1490 N   0  0  0  0  0  0  0  0  0  0  0  0
    3.0250  -31.4770  -30.7500 C   0  0  0  0  0  0  0  0  0  0  0  0
    7.7810  -36.3370  -35.4300 C   0  0  0  0  0  0  0  0  0  0  0  0
   12.4070  -34.6380  -33.0410 C   0  0  2  0  0  0  0  0  0  0  0  0
    2.7810  -32.3030  -32.7900 C   0  0  0  0  0  0  0  0  0  0  0  0
    2.0510  -31.2740  -32.0010 C   0  0  1  0  0  0  0  0  0  0  0  0
    6.4830  -35.6150  -35.1530 C   0  0  0  0  0  0  0  0  0  0  0  0
   13.2920  -33.9190  -32.1390 O   0  0  0  0  0  0  0  0  0  0  0  0
    9.6640  -35.8900  -33.9730 C   0  0  0  0  0  0  0  0  0  0  0  0
   12.8270  -32.5350  -30.2230 C   0  0  0  0  0  0  0  0  0  0  0  0
    8.5640  -35.7370  -34.4720 C   0  0  0  0  0  0  0  0  0  0  0  0
    0.6650  -31.6040  -31.6400 C   0  0  0  0  0  0  0  0  0  0  0  0
    0.4950  -31.3010  -30.2820 O   0  0  0  0  0  0  0  0  0  0  0  0
   12.4520  -35.1900  -35.2500 O   0  0  0  0  0  0  0  0  0  0  0  0
   10.0410  -34.8370  -33.2260 C   0  0  2  0  0  0  0  0  0  0  0  0
    5.0450  -32.1150  -31.9310 N   0  0  0  0  0  0  0  0  0  0  0  0
   11.1450  -34.4500  -32.5530 C   0  0  1  0  0  0  0  0  0  0  0  0
  1 22  1  0
  1 10  1  0
  2 23  1  0
  3 32  1  0
  4 10  2  0
  5 23  1  0
  8  9  1  0
 10 21  1  0
 11  2  1  0
 12 11  1  0
 13 31  1  0
 14  8  2  0
 16  7  2  0
 17 27  1  0
 17 24  1  0
 18 26  1  0
 19  7  1  0
 19 15  1  0
 20  3  2  0
 20 16  1  0
 21  2  2  0
 21 38  1  0
 22 12  2  0
 25 29  1  0
 25 33  1  0
 26  6  1  6
 26 39  1  0
 26 30  1  0
 27 28  1  0
 28 34  1  1
 28 24  1  0
 29  1  1  0
 30  3  1  0
 32 19  2  0
 33 31  2  0
 33 22  1  0
 34 35  1  0
 35  8  1  0
 36 18  1  0
 37 31  1  1
 37 12  1  0
 37 39  1  0
 17 38  1  6
 38  5  1  0
 39 20  1  1
M  END
$$$$

     RDKit          3D

 34 36  0  0  0  0  0  0  0  0999 V2000
    2.3000  -35.1870  -36.2710 N   0  0  0  0  0  0  0  0  0  0  0  0
    9.0560  -32.6890  -31.1940 C   0  0  0  0  0  0  0  0  0  0  0  0
   12.9020  -32.7080  -28.2280 N   0  0  0  0  0  0  0  0  0  0  0  0
   10.7260  -37.1780  -34.0170 C   0  0  0  0  0  0  0  0  0  0  0  0
    6.9290  -32.3210  -32.2910 C   0  0  2  0  0  0  0  0  0  0  0  0
   10.3740  -36.0670  -33.9310 C   0  0  0  0  0  0  0  0  0  0  0  0
   14.7290  -33.8540  -26.4500 F   0  0  0  0  0  0  0  0  0  0  0  0
    6.7740  -34.5840  -35.0540 C   0  0  0  0  0  0  0  0  0  0  0  0
   11.8050  -33.7400  -33.1740 C   0  0  0  0  0  0  0  0  0  0  0  0
    5.0350  -33.9810  -33.9240 N   0  0  0  0  0  0  0  0  0  0  0  0
    6.3210  -33.5970  -33.3320 C   0  0  0  0  0  0  0  0  0  0  0  0
    4.5830  -35.3280  -35.6540 C   0  0  2  0  0  0  0  0  0  0  0  0
    9.7390  -31.7250  -29.1540 C   0  0  0  0  0  0  0  0  0  0  0  0
   14.3380  -32.5440  -26.5250 C   0  0  1  0  0  0  0  0  0  0  0  0
   14.3400  -31.7890  -25.4100 F   0  0  0  0  0  0  0  0  0  0  0  0
    4.6760  -35.2610  -37.2200 S   0  0  0  0  0  0  0  0  0  0  0  0
   11.8550  -32.2670  -28.1810 O   0  0  0  0  0  0  0  0  0  0  0  0
    2.3340  -35.1050  -38.4290 N   0  0  0  0  0  0  0  0  0  0  0  0
    8.7840  -31.8600  -30.2080 C   0  0  0  0  0  0  0  0  0  0  0  0
   15.1770  -31.9020  -27.3500 F   0  0  0  0  0  0  0  0  0  0  0  0
    9.8380  -35.2030  -32.9570 C   0  0  0  0  0  0  0  0  0  0  0  0
    8.1190  -32.7680  -32.1600 N   0  0  0  0  0  0  0  0  0  0  0  0
    3.3410  -35.1090  -35.4680 N   0  0  0  0  0  0  0  0  0  0  0  0
   13.2600  -33.2630  -27.0600 C   0  0  0  0  0  0  0  0  0  0  0  0
   11.1440  -33.1790  -30.2890 C   0  0  0  0  0  0  0  0  0  0  0  0
    7.2770  -33.9100  -33.9530 C   0  0  0  0  0  0  0  0  0  0  0  0
    2.9890  -35.0960  -37.2880 C   0  0  0  0  0  0  0  0  0  0  0  0
    7.2170  -34.4350  -36.3040 F   0  0  0  0  0  0  0  0  0  0  0  0
   10.2490  -33.3130  -31.3460 C   0  0  0  0  0  0  0  0  0  0  0  0
   10.8540  -32.3520  -29.1390 C   0  0  0  0  0  0  0  0  0  0  0  0
   10.6060  -34.0730  -32.4670 C   0  0  0  0  0  0  0  0  0  0  0  0
    4.7710  -31.9230  -31.9550 C   0  0  0  0  0  0  0  0  0  0  0  0
    5.4170  -34.5850  -34.9020 C   0  0  0  0  0  0  0  0  0  0  0  0
    6.0810  -31.8300  -32.0180 N   0  0  0  0  0  0  0  0  0  0  0  0
  1 23  1  0
  2 19  2  0
  3 17  1  0
  3 24  1  0
  4  6  2  0
  5 22  1  1
  5 34  1  0
  6 21  1  0
  8 33  2  0
  8 26  1  0
  9 31  1  0
 10 11  2  0
 11  5  1  0
 12 23  1  0
 12 33  1  1
 13 30  2  0
 14  7  1  1
 14 15  1  0
 16 12  1  0
 18 27  2  0
 19 13  1  0
 20 14  1  0
 21 31  2  3
 22  2  1  0
 24 14  1  0
 25 30  1  0
 26 11  1  0
 27 16  1  0
 27  1  1  0
 28  8  1  0
 29  2  1  0
 29 25  2  0
 30 17  1  0
 31 29  1  0
 33 10  1  0
 34 32  2  0
M  END
$$$$

     RDKit          3D

 20 23  0  0  0  0  0  0  0  0999 V2000
   10.8150  -35.9990  -33.9410 C   0  0  0  0  0  0  0  0  0  0  0  0
   11.0660  -33.9920  -32.0290 C   0  0  0  0  0  0  0  0  0  0  0  0
    7.7540  -35.0650  -34.6300 C   0  0  1  0  0  0  0  0  0  0  0  0
    5.5750  -32.8880  -33.4950 C   0  0  0  0  0  0  0  0  0  0  0  0
   10.5300  -32.9290  -30.9550 C   0  0  0  0  0  0  0  0  0  0  0  0
    9.1320  -35.5100  -34.5530 C   0  0  0  0  0  0  0  0  0  0  0  0
    8.8850  -34.7370  -33.7270 C   0  0  2  0  0  0  0  0  0  0  0  0
    4.2480  -32.8800  -34.1270 C   0  0  0  0  0  0  0  0  0  0  0  0
    7.8060  -33.7200  -33.0580 C   0  0  2  0  0  0  0  0  0  0  0  0
    8.7370  -32.9410  -31.7500 C   0  0  0  0  0  0  0  0  0  0  0  0
    6.6820  -34.5300  -34.6630 C   0  0  0  0  0  0  0  0  0  0  0  0
   10.2080  -34.3690  -32.7090 C   0  0  2  0  0  0  0  0  0  0  0  0
    6.6990  -33.4590  -33.5670 C   0  0  0  0  0  0  0  0  0  0  0  0
    4.3430  -33.9220  -35.2660 C   0  0  0  0  0  0  0  0  0  0  0  0
    9.2440  -32.6570  -30.9790 C   0  0  0  0  0  0  0  0  0  0  0  0
   10.5860  -34.3470  -33.4210 C   0  0  1  0  0  0  0  0  0  0  0  0
    8.4260  -33.3690  -32.5950 C   0  0  0  0  0  0  0  0  0  0  0  0
    5.7110  -34.7560  -35.2990 C   0  0  0  0  0  0  0  0  0  0  0  0
    9.3890  -34.0990  -33.5860 C   0  0  0  0  0  0  0  0  0  0  0  0
   11.6160  -34.9360  -34.1040 C   0  0  0  0  0  0  0  0  0  0  0  0
 16  1  1  6
  3  6  1  6
  3  7  1  0
  6  7  1  0
  7 19  1  6
  7  9  1  0
  8  4  2  0
  9 17  1  6
 10 15  2  0
 11  3  1  0
 11 13  2  0
 12  2  1  1
 13  4  1  0
 13  9  1  0
 14  8  1  0
 15  5  1  0
 16 12  1  0
 17 10  2  0
 18 14  2  0
 18 11  1  0
 19 12  1  0
 20  1  1  0
 20 16  1  0
M  END
$$$$

     RDKit          3D

 31 34  0  0  0  0  0  0  0  0999 V2000
    2.7980  -35.1580  -36.9800 C   0  0  2  0  0  0  0  0  0  0  0  0
   11.8540  -32.5370  -28.8750 C   0  0  0  0  0  0  0  0  0  0  0  0
    4.7600  -35.0860  -35.4050 O   0  0  0  0  0  0  0  0  0  0  0  0
    2.0810  -34.0040  -36.9660 F   0  0  0  0  0  0  0  0  0  0  0  0
    9.4430  -33.0240  -32.5290 C   0  0  0  0  0  0  0  0  0  0  0  0
   11.0850  -32.7820  -29.7630 C   0  0  0  0  0  0  0  0  0  0  0  0
    4.0150  -33.1520  -34.0400 C   0  0  0  0  0  0  0  0  0  0  0  0
   10.8880  -33.9550  -29.1880 C   0  0  0  0  0  0  0  0  0  0  0  0
   11.1410  -33.4830  -32.2600 C   0  0  0  0  0  0  0  0  0  0  0  0
    7.5960  -34.1410  -34.3020 C   0  0  1  0  0  0  0  0  0  0  0  0
    7.8560  -34.9020  -35.4580 O   0  0  0  0  0  0  0  0  0  0  0  0
    4.9620  -34.1430  -34.7510 C   0  0  1  0  0  0  0  0  0  0  0  0
    6.2390  -33.9520  -33.9890 C   0  0  2  0  0  0  0  0  0  0  0  0
    9.9820  -32.2440  -30.3550 C   0  0  0  0  0  0  0  0  0  0  0  0
    4.7240  -32.6670  -32.8840 N   0  0  0  0  0  0  0  0  0  0  0  0
    5.0380  -34.9440  -37.2870 O   0  0  0  0  0  0  0  0  0  0  0  0
    4.1490  -35.2040  -36.7270 C   0  0  0  0  0  0  0  0  0  0  0  0
   11.6380  -33.3440  -30.0010 C   0  0  2  0  0  0  0  0  0  0  0  0
    2.5470  -35.5100  -38.2810 F   0  0  0  0  0  0  0  0  0  0  0  0
    6.2330  -32.7910  -32.9790 C   0  0  1  0  0  0  0  0  0  0  0  0
   10.7790  -34.4360  -33.3660 C   0  0  0  0  0  0  0  0  0  0  0  0
    2.1130  -35.9980  -36.2190 F   0  0  0  0  0  0  0  0  0  0  0  0
    7.2040  -32.4310  -32.5290 C   0  0  0  0  0  0  0  0  0  0  0  0
    8.8560  -33.7210  -33.2870 C   0  0  1  0  0  0  0  0  0  0  0  0
    7.5110  -32.1020  -31.5020 O   0  0  0  0  0  0  0  0  0  0  0  0
   12.1720  -32.6500  -29.2780 C   0  0  0  0  0  0  0  0  0  0  0  0
    4.8560  -31.9670  -31.6540 C   0  0  0  0  0  0  0  0  0  0  0  0
   10.2160  -33.3680  -31.4470 C   0  0  2  0  0  0  0  0  0  0  0  0
   10.9450  -33.1780  -30.2430 C   0  0  2  0  0  0  0  0  0  0  0  0
    3.0750  -32.7430  -34.5130 O   0  0  0  0  0  0  0  0  0  0  0  0
    9.7090  -34.3430  -33.8300 C   0  0  0  0  0  0  0  0  0  0  0  0
  1  4  1  6
  1 17  1  0
  1 22  1  0
  7 15  1  0
 28  9  1  6
 10 11  1  1
 12  3  1  1
 12  7  1  0
 13 12  1  6
 13 10  1  0
 13 20  1  0
 15 27  1  0
 16 17  2  0
 17  3  1  0
 18  6  1  0
 18 26  1  0
 18  8  1  1
 19  1  1  0
 20 15  1  0
 20 23  1  1
 21  9  1  0
 23 25  2  0
 24 10  1  0
 24  5  1  6
 26  2  1  0
 28  5  1  0
 28 14  1  0
 28 29  1  0
 29 14  1  6
 29 18  1  0
 29  6  1  0
 30  7  2  0
 31 21  2  0
 31 24  1  0
M  END
$$$$

     RDKit          3D

 18 21  0  0  0  0  0  0  0  0999 V2000
    7.8580  -35.4010  -35.9840 C   0  0  0  0  0  0  0  0  0  0  0  0
    9.1680  -32.6820  -31.1890 C   0  0  0  0  0  0  0  0  0  0  0  0
    9.2960  -33.7150  -32.4220 C   0  0  0  0  0  0  0  0  0  0  0  0
   10.4720  -32.6440  -30.5080 N   0  0  0  0  0  0  0  0  0  0  0  0
    7.1960  -34.8480  -33.7050 C   0  0  0  0  0  0  0  0  0  0  0  0
   11.0510  -35.2260  -33.6680 S   0  0  0  0  0  0  0  0  0  0  0  0
   10.8760  -34.2610  -32.1930 C   0  0  1  0  0  0  0  0  0  0  0  0
    6.0030  -34.7840  -34.6510 C   0  0  0  0  0  0  0  0  0  0  0  0
    9.5200  -34.8050  -34.2980 C   0  0  2  0  0  0  0  0  0  0  0  0
    6.5690  -35.1350  -36.5640 C   0  0  0  0  0  0  0  0  0  0  0  0
    5.7890  -34.5620  -37.7160 C   0  0  0  0  0  0  0  0  0  0  0  0
    8.3830  -34.2070  -33.5490 C   0  0  2  0  0  0  0  0  0  0  0  0
    4.3830  -34.4000  -37.0500 C   0  0  0  0  0  0  0  0  0  0  0  0
   11.4720  -33.4980  -31.4110 C   0  0  0  0  0  0  0  0  0  0  0  0
    7.9700  -31.9020  -30.7690 C   0  0  0  0  0  0  0  0  0  0  0  0
    5.6660  -35.7260  -35.6690 C   0  0  2  0  0  0  0  0  0  0  0  0
    8.9290  -35.5650  -35.4640 C   0  0  0  0  0  0  0  0  0  0  0  0
    4.2150  -35.6170  -36.1570 C   0  0  0  0  0  0  0  0  0  0  0  0
  1 17  2  0
  2 15  1  0
  2  4  1  0
  3  7  1  0
  3  2  2  0
  6  7  1  0
  7 14  1  6
  8  5  1  0
  9 17  1  0
  9  6  1  1
  9 12  1  0
 10  1  2  0
 10 16  1  0
 11 13  1  0
 11 10  1  0
 12  5  1  1
 12  3  1  0
 13 18  1  0
 14  4  1  0
 16 18  1  6
 16  8  1  0
M  END
$$$$

     RDKit          3D

 15 17  0  0  0  0  0  0  0  0999 V2000
    5.6700  -33.3580  -34.0440 C   0  0  0  0  0  0  0  0  0  0  0  0
    5.0400  -32.4160  -33.5560 O   0  0  0  0  0  0  0  0  0  0  0  0
    5.0930  -34.0470  -35.0120 N   0  0  0  0  0  0  0  0  0  0  0  0
    6.9430  -33.7420  -33.5950 C   0  0  0  0  0  0  0  0  0  0  0  0
    7.9440  -33.2590  -32.5710 C   0  0  0  0  0  0  0  0  0  0  0  0
    7.9110  -32.2970  -31.6070 C   0  0  0  0  0  0  0  0  0  0  0  0
    8.8500  -34.9060  -33.6860 N   0  0  0  0  0  0  0  0  0  0  0  0
    3.8220  -33.6260  -35.6780 C   0  0  0  0  0  0  0  0  0  0  0  0
    9.0960  -34.0530  -32.7680 C   0  0  0  0  0  0  0  0  0  0  0  0
    8.9520  -32.1570  -30.9040 C   0  0  0  0  0  0  0  0  0  0  0  0
   10.1100  -33.7870  -31.8940 C   0  0  0  0  0  0  0  0  0  0  0  0
    6.8320  -35.6370  -34.9870 C   0  0  0  0  0  0  0  0  0  0  0  0
    5.5820  -35.2120  -35.4940 C   0  0  0  0  0  0  0  0  0  0  0  0
    7.5490  -34.8660  -34.1470 C   0  0  0  0  0  0  0  0  0  0  0  0
   10.0210  -32.8820  -30.9850 C   0  0  0  0  0  0  0  0  0  0  0  0
  1  4  1  0
  1  2  2  0
  3  1  1  0
  4  5  1  0
  5  6  1  0
  6 10  2  0
  7  9  2  0
  8  3  1  0
  9  5  1  0
  9 11  1  0
 11 15  2  0
 12 14  1  0
 13  3  1  0
 13 12  2  0
 14  7  1  0
 14  4  2  0
 15 10  1  0
M  END
$$$$

     RDKit          3D

 18 22  0  0  0  0  0  0  0  0999 V2000
    9.6140  -36.6610  -33.3360 C   0  0  0  0  0  0  0  0  0  0  0  0
    7.8660  -32.4030  -32.0480 C   0  0  0  0  0  0  0  0  0  0  0  0
    8.5630  -34.9060  -33.3420 C   0  0  0  0  0  0  0  0  0  0  0  0
   10.8870  -34.2290  -31.4890 C   0  0  1  0  0  0  0  0  0  0  0  0
    9.1590  -34.1170  -32.7220 C   0  0  0  0  0  0  0  0  0  0  0  0
   11.3290  -33.4470  -29.7880 C   0  0  0  0  0  0  0  0  0  0  0  0
    5.4270  -34.0910  -34.8770 N   0  0  0  0  0  0  0  0  0  0  0  0
    9.2190  -35.9180  -34.0470 O   0  0  0  0  0  0  0  0  0  0  0  0
   11.8130  -32.6920  -28.6440 C   0  0  0  0  0  0  0  0  0  0  0  0
    9.0270  -33.1480  -32.1300 C   0  0  2  0  0  0  0  0  0  0  0  0
    6.6450  -33.6110  -33.7740 C   0  0  0  0  0  0  0  0  0  0  0  0
    7.3560  -34.7620  -34.1480 C   0  0  0  0  0  0  0  0  0  0  0  0
    6.8900  -32.4830  -32.8920 C   0  0  0  0  0  0  0  0  0  0  0  0
   10.2000  -32.9340  -30.4180 O   0  0  0  0  0  0  0  0  0  0  0  0
   10.6790  -35.6690  -32.5660 C   0  0  0  0  0  0  0  0  0  0  0  0
   10.1200  -33.7060  -31.6450 C   0  0  2  0  0  0  0  0  0  0  0  0
   11.4020  -34.5220  -30.4440 N   0  0  0  0  0  0  0  0  0  0  0  0
    6.6430  -35.2240  -34.8490 C   0  0  0  0  0  0  0  0  0  0  0  0
  1 15  1  0
  3  5  2  0
  4 15  1  1
  4 17  1  0
  5 10  1  0
  6  9  1  0
  7 18  1  0
  7 11  1  0
  8  3  1  0
  8  1  1  0
 10  2  1  1
 10 16  1  0
 11 13  1  0
 12 11  2  0
 12  3  1  0
 13  2  2  0
 14  6  1  0
 16  5  1  0
 16  4  1  0
 16 14  1  1
 17  6  2  0
 18 12  1  0
M  END
$$$$

     RDKit          3D

 20 22  0  0  0  0  0  0  0  0999 V2000
   11.6060  -33.8830  -33.0150 C   0  0  0  0  0  0  0  0  0  0  0  0
   11.6720  -33.2880  -29.4110 C   0  0  0  0  0  0  0  0  0  0  0  0
    8.4740  -32.9770  -31.6390 C   0  0  0  0  0  0  0  0  0  0  0  0
   11.8340  -33.7090  -31.7260 N   0  0  0  0  0  0  0  0  0  0  0  0
   10.4560  -34.0710  -33.0010 O   0  0  0  0  0  0  0  0  0  0  0  0
    3.7020  -32.3380  -31.1540 C   0  0  0  0  0  0  0  0  0  0  0  0
   10.8730  -33.7270  -30.6200 C   0  0  2  0  0  0  0  0  0  0  0  0
    6.4940  -33.2000  -33.0690 C   0  0  0  0  0  0  0  0  0  0  0  0
   13.2000  -33.5110  -31.2060 C   0  0  0  0  0  0  0  0  0  0  0  0
    6.5700  -31.5460  -31.2520 C   0  0  0  0  0  0  0  0  0  0  0  0
    7.8810  -33.4570  -32.8440 C   0  0  0  0  0  0  0  0  0  0  0  0
   12.7900  -32.5850  -30.0270 C   0  0  0  0  0  0  0  0  0  0  0  0
    8.4410  -34.2160  -33.8330 O   0  0  0  0  0  0  0  0  0  0  0  0
    4.3670  -32.1100  -32.4590 C   0  0  0  0  0  0  0  0  0  0  0  0
    7.9790  -31.8120  -31.0140 C   0  0  0  0  0  0  0  0  0  0  0  0
    9.6160  -34.9750  -33.3910 C   0  0  1  0  0  0  0  0  0  0  0  0
    5.7940  -32.2830  -32.2330 C   0  0  0  0  0  0  0  0  0  0  0  0
   10.3140  -36.1860  -34.0670 C   0  0  0  0  0  0  0  0  0  0  0  0
   12.5200  -33.8090  -33.8710 O   0  0  0  0  0  0  0  0  0  0  0  0
    9.5210  -33.5270  -30.8810 C   0  0  0  0  0  0  0  0  0  0  0  0
  1  5  1  0
  1  4  1  0
  3 15  1  0
  3 20  1  0
  4  9  1  0
  4  7  1  0
  7 20  1  6
  7  2  1  0
  8 11  2  0
  8 17  1  0
  9 12  1  0
 10 15  1  0
 11  3  1  0
 12  2  1  0
 13 16  1  0
 13 11  1  0
 14 17  1  0
 14  6  1  0
 16 18  1  6
 16  5  1  0
 17 10  2  0
 19  1  2  0
M  END
$$$$

     RDKit          3D

 24 26  0  0  0  0  0  0  0  0999 V2000
    5.6610  -33.0300  -32.9590 C   0  0  0  0  0  0  0  0  0  0  0  0
    8.0650  -35.4970  -36.2710 C   0  0  0  0  0  0  0  0  0  0  0  0
   10.9450  -33.8660  -32.6690 C   0  0  0  0  0  0  0  0  0  0  0  0
    5.7870  -31.2320  -30.9020 C   0  0  0  0  0  0  0  0  0  0  0  0
    5.5200  -34.0170  -33.9850 C   0  0  0  0  0  0  0  0  0  0  0  0
   10.7850  -33.1110  -30.3550 C   0  0  0  0  0  0  0  0  0  0  0  0
    8.0710  -33.2410  -32.7120 N   0  0  0  0  0  0  0  0  0  0  0  0
   12.9690  -33.3300  -31.4360 C   0  0  0  0  0  0  0  0  0  0  0  0
    4.5550  -31.4980  -31.4690 C   0  0  0  0  0  0  0  0  0  0  0  0
   10.3780  -34.5480  -33.6890 O   0  0  0  0  0  0  0  0  0  0  0  0
   10.6570  -35.9760  -33.5310 C   0  0  0  0  0  0  0  0  0  0  0  0
    4.4340  -34.2810  -34.5600 O   0  0  0  0  0  0  0  0  0  0  0  0
   10.1370  -32.8290  -29.1420 C   0  0  0  0  0  0  0  0  0  0  0  0
   12.2800  -33.6280  -32.5760 C   0  0  0  0  0  0  0  0  0  0  0  0
    8.0580  -31.5520  -30.6370 O   0  0  0  0  0  0  0  0  0  0  0  0
   12.2210  -33.0300  -30.2800 C   0  0  0  0  0  0  0  0  0  0  0  0
    4.4650  -32.4270  -32.5380 C   0  0  0  0  0  0  0  0  0  0  0  0
    6.6070  -34.6570  -34.4650 N   0  0  0  0  0  0  0  0  0  0  0  0
    6.8360  -32.7180  -32.3540 C   0  0  0  0  0  0  0  0  0  0  0  0
    6.6610  -35.9590  -36.7020 C   0  0  0  0  0  0  0  0  0  0  0  0
    6.9450  -31.8760  -31.2900 C   0  0  0  0  0  0  0  0  0  0  0  0
    6.8000  -34.7820  -35.9060 C   0  0  2  0  0  0  0  0  0  0  0  0
   10.2170  -33.4410  -31.6430 C   0  0  0  0  0  0  0  0  0  0  0  0
    8.9690  -33.2210  -32.0210 N   0  0  0  0  0  0  0  0  0  0  0  0
  1 17  2  0
  1 19  1  0
  2 22  1  0
  3 14  2  0
  3 23  1  0
  5  1  1  0
  6 16  1  0
  6 13  1  0
  7 19  1  0
  7 24  1  0
  8 16  2  0
  9  4  2  0
 10 11  1  0
 10  3  1  0
 12  5  2  0
 14  8  1  0
 17  9  1  0
 18  5  1  0
 19 21  2  0
 20  2  1  0
 20 22  1  0
 21  4  1  0
 21 15  1  0
 22 18  1  1
 23  6  2  0
 24 23  1  0
M  END
$$$$

     RDKit          3D

 22 25  0  0  0  0  0  0  0  0999 V2000
    2.9580  -33.8510  -35.2540 C   0  0  0  0  0  0  0  0  0  0  0  0
    8.1750  -34.7810  -33.9850 C   0  0  0  0  0  0  0  0  0  0  0  0
   11.2820  -34.1010  -31.0970 C   0  0  0  0  0  0  0  0  0  0  0  0
    2.7760  -35.4980  -36.0030 C   0  0  0  0  0  0  0  0  0  0  0  0
    9.3260  -32.6000  -30.4970 C   0  0  0  0  0  0  0  0  0  0  0  0
    6.7800  -33.1950  -33.1690 C   0  0  0  0  0  0  0  0  0  0  0  0
    8.3690  -35.6530  -34.7640 O   0  0  0  0  0  0  0  0  0  0  0  0
   11.4040  -33.2770  -30.1180 C   0  0  0  0  0  0  0  0  0  0  0  0
    8.8980  -34.3350  -33.3000 C   0  0  0  0  0  0  0  0  0  0  0  0
    3.8210  -33.4560  -35.0360 C   0  0  0  0  0  0  0  0  0  0  0  0
   10.5090  -33.7190  -32.1530 C   0  0  1  0  0  0  0  0  0  0  0  0
    4.8610  -34.7160  -34.6220 C   0  0  1  0  0  0  0  0  0  0  0  0
    2.3580  -33.9960  -35.8870 N   0  0  0  0  0  0  0  0  0  0  0  0
    6.8530  -34.0200  -33.7750 C   0  0  0  0  0  0  0  0  0  0  0  0
    8.7990  -33.3240  -32.6050 C   0  0  1  0  0  0  0  0  0  0  0  0
   10.1540  -34.7500  -33.0680 C   0  0  0  0  0  0  0  0  0  0  0  0
    7.7330  -32.4930  -32.6790 C   0  0  0  0  0  0  0  0  0  0  0  0
    5.8700  -34.9560  -35.4470 C   0  0  0  0  0  0  0  0  0  0  0  0
    6.0920  -34.4120  -34.3600 N   0  0  0  0  0  0  0  0  0  0  0  0
    9.6940  -33.1320  -31.6150 C   0  0  1  0  0  0  0  0  0  0  0  0
   12.4410  -33.2780  -29.3340 F   0  0  0  0  0  0  0  0  0  0  0  0
   10.3970  -32.5820  -29.8660 C   0  0  0  0  0  0  0  0  0  0  0  0
  1 10  1  0
  2 14  1  0
  2  9  1  0
  3  8  1  0
  4 13  1  0
  5 22  1  0
  6 17  1  0
  7  2  2  0
  8 22  2  0
  8 21  1  0
  9 16  1  0
  9 15  1  0
 11 16  1  1
 11 20  1  0
 11  3  1  0
 12 10  1  6
 12 19  1  0
 13  1  1  0
 14  6  2  0
 15 17  1  1
 15 20  1  0
 18 12  1  0
 18 19  1  0
 19 14  1  0
 20  5  1  1
M  END
$$$$

     RDKit          3D

 32 37  0  0  0  0  0  0  0  0999 V2000
   10.7480  -36.0910  -34.6590 C   0  0  0  0  0  0  0  0  0  0  0  0
    6.9760  -33.3200  -33.2310 C   0  0  0  0  0  0  0  0  0  0  0  0
    4.0760  -35.7890  -35.9390 C   0  0  0  0  0  0  0  0  0  0  0  0
   11.4170  -33.4710  -30.6560 C   0  0  0  0  0  0  0  0  0  0  0  0
    8.6190  -35.1810  -33.7470 C   0  0  2  0  0  0  0  0  0  0  0  0
    9.3850  -32.3890  -30.4490 C   0  0  0  0  0  0  0  0  0  0  0  0
    4.4070  -33.6550  -34.5460 C   0  0  0  0  0  0  0  0  0  0  0  0
    5.6710  -34.1600  -35.1980 N   0  0  0  0  0  0  0  0  0  0  0  0
   13.0890  -33.2960  -28.8700 C   0  0  0  0  0  0  0  0  0  0  0  0
   12.6170  -33.8570  -30.1010 C   0  0  0  0  0  0  0  0  0  0  0  0
   10.1580  -38.5770  -33.6550 C   0  0  0  0  0  0  0  0  0  0  0  0
    5.6540  -35.0030  -37.5080 F   0  0  0  0  0  0  0  0  0  0  0  0
    3.5940  -33.4230  -35.7320 C   0  0  0  0  0  0  0  0  0  0  0  0
    8.9520  -32.8840  -31.6610 C   0  0  0  0  0  0  0  0  0  0  0  0
   11.1380  -31.8990  -28.7960 C   0  0  0  0  0  0  0  0  0  0  0  0
    7.2310  -35.6060  -34.2900 C   0  0  0  0  0  0  0  0  0  0  0  0
    3.1450  -34.7540  -36.2490 N   0  0  0  0  0  0  0  0  0  0  0  0
    9.3490  -37.6450  -33.5100 C   0  0  0  0  0  0  0  0  0  0  0  0
   11.0200  -33.8650  -31.9780 N   0  0  0  0  0  0  0  0  0  0  0  0
    9.3090  -33.9930  -33.6100 N   0  0  0  0  0  0  0  0  0  0  0  0
   11.6850  -37.0400  -34.7240 C   0  0  0  0  0  0  0  0  0  0  0  0
    5.4890  -35.3610  -36.1740 C   0  0  2  0  0  0  0  0  0  0  0  0
   11.3230  -38.3160  -34.1410 C   0  0  0  0  0  0  0  0  0  0  0  0
   12.3260  -32.2660  -28.3140 C   0  0  0  0  0  0  0  0  0  0  0  0
    7.4320  -31.3060  -30.1930 C   0  0  0  0  0  0  0  0  0  0  0  0
    8.7390  -31.6780  -29.7770 N   0  0  0  0  0  0  0  0  0  0  0  0
    7.0250  -31.6550  -31.1700 C   0  0  0  0  0  0  0  0  0  0  0  0
    6.9140  -34.0450  -34.5450 C   0  0  2  0  0  0  0  0  0  0  0  0
    9.5430  -36.2450  -34.1150 C   0  0  0  0  0  0  0  0  0  0  0  0
   10.7060  -32.5130  -30.0490 C   0  0  0  0  0  0  0  0  0  0  0  0
    9.7980  -33.6060  -32.3330 C   0  0  0  0  0  0  0  0  0  0  0  0
    7.6870  -32.5380  -32.1270 C   0  0  0  0  0  0  0  0  0  0  0  0
  1 29  2  0
  2 32  1  0
  4 10  2  0
  4 30  1  0
  5 29  1  6
  5 20  1  0
  6 30  1  0
  6 26  1  0
  8  7  1  0
 28  8  1  1
  9 24  2  0
 10  9  1  0
 11 18  2  0
 13  7  1  0
 14  6  2  0
 15 24  1  0
 16  5  1  0
 17  3  1  0
 17 13  1  0
 19  4  1  0
 20 31  1  0
 21  1  1  0
 21 23  2  0
 22 12  1  6
 22  3  1  0
 22  8  1  0
 23 11  1  0
 25 26  2  0
 27 25  1  0
 28 16  1  0
 28  2  1  0
 29 18  1  0
 30 15  2  0
 31 19  2  0
 31 14  1  0
 32 14  1  0
 32 27  2  0
M  END
$$$$

     RDKit          3D

 21 23  0  0  0  0  0  0  0  0999 V2000
    8.0430  -34.9260  -34.4970 C   0  0  0  0  0  0  0  0  0  0  0  0
    5.8800  -33.8450  -33.9170 C   0  0  0  0  0  0  0  0  0  0  0  0
   14.0710  -34.4680  -33.3430 C   0  0  0  0  0  0  0  0  0  0  0  0
    5.0360  -33.0410  -33.1570 C   0  0  0  0  0  0  0  0  0  0  0  0
   12.7000  -34.3480  -33.3240 C   0  0  2  0  0  0  0  0  0  0  0  0
    6.9370  -32.1050  -31.9830 C   0  0  0  0  0  0  0  0  0  0  0  0
   11.8970  -33.5190  -32.5960 C   0  0  2  0  0  0  0  0  0  0  0  0
   15.2420  -34.6630  -33.3450 N   0  0  0  0  0  0  0  0  0  0  0  0
    5.5940  -32.2220  -32.1440 C   0  0  0  0  0  0  0  0  0  0  0  0
    7.2680  -33.8700  -33.6610 C   0  0  0  0  0  0  0  0  0  0  0  0
   12.5680  -32.6930  -31.2040 Cl  0  0  0  0  0  0  0  0  0  0  0  0
   10.1470  -34.6100  -33.4460 C   0  0  2  0  0  0  0  0  0  0  0  0
    3.6430  -33.0260  -33.3260 C   0  0  0  0  0  0  0  0  0  0  0  0
   10.8330  -35.1010  -34.2870 C   0  0  0  0  0  0  0  0  0  0  0  0
   10.4540  -33.7040  -32.5090 C   0  0  0  0  0  0  0  0  0  0  0  0
    3.3870  -31.4950  -31.5320 C   0  0  0  0  0  0  0  0  0  0  0  0
   12.0790  -35.3150  -34.0970 C   0  0  0  0  0  0  0  0  0  0  0  0
    7.7380  -32.8710  -32.8170 C   0  0  0  0  0  0  0  0  0  0  0  0
    4.7080  -31.4390  -31.3540 C   0  0  0  0  0  0  0  0  0  0  0  0
    9.1390  -35.4400  -33.7290 N   0  0  0  0  0  0  0  0  0  0  0  0
    2.8820  -32.2780  -32.5080 C   0  0  0  0  0  0  0  0  0  0  0  0
  1 20  1  0
  1 10  1  0
  2 10  2  0
  2  4  1  0
  4  9  2  0
  5  3  1  1
  5  7  1  0
  7 15  1  0
  7 11  1  1
  8  3  3  0
  9  6  1  0
  9 19  1  0
 10 18  1  0
 12 20  1  1
 12 15  1  0
 13  4  1  0
 13 21  2  0
 14 17  1  0
 14 12  1  0
 16 19  2  0
 17  5  1  0
 18  6  2  0
 21 16  1  0
M  END
$$$$

     RDKit          3D

 32 36  0  0  0  0  0  0  0  0999 V2000
    9.0550  -33.0710  -32.0430 C   0  0  1  0  0  0  0  0  0  0  0  0
   10.5330  -31.8110  -29.2230 C   0  0  0  0  0  0  0  0  0  0  0  0
    3.3010  -34.5640  -39.5470 O   0  0  0  0  0  0  0  0  0  0  0  0
   12.6830  -35.6920  -34.2120 O   0  0  0  0  0  0  0  0  0  0  0  0
    9.3400  -32.4460  -31.0290 C   0  0  0  0  0  0  0  0  0  0  0  0
    8.2140  -32.6000  -32.9890 N   0  0  0  0  0  0  0  0  0  0  0  0
    7.8760  -31.7370  -30.6390 C   0  0  0  0  0  0  0  0  0  0  0  0
   10.4080  -32.6210  -30.3640 N   0  0  0  0  0  0  0  0  0  0  0  0
    5.1980  -32.2710  -31.8080 C   0  0  0  0  0  0  0  0  0  0  0  0
    8.7470  -35.2690  -33.1200 C   0  0  0  0  0  0  0  0  0  0  0  0
    5.6240  -31.5850  -31.0500 N   0  0  0  0  0  0  0  0  0  0  0  0
    3.0310  -33.4720  -36.2350 C   0  0  0  0  0  0  0  0  0  0  0  0
    9.3770  -36.3650  -33.7550 C   0  0  0  0  0  0  0  0  0  0  0  0
    5.7570  -33.5700  -33.8510 C   0  0  0  0  0  0  0  0  0  0  0  0
   12.8240  -33.6590  -32.7170 O   0  0  0  0  0  0  0  0  0  0  0  0
    3.4990  -32.3080  -32.1700 C   0  0  0  0  0  0  0  0  0  0  0  0
    7.0590  -32.4630  -32.4820 C   0  0  0  0  0  0  0  0  0  0  0  0
    3.4490  -33.4970  -34.7620 C   0  0  1  0  0  0  0  0  0  0  0  0
    4.7720  -32.8870  -34.7850 O   0  0  0  0  0  0  0  0  0  0  0  0
   10.3260  -35.7860  -34.8340 C   0  0  0  0  0  0  0  0  0  0  0  0
    3.6240  -34.6270  -37.3460 C   0  0  2  0  0  0  0  0  0  0  0  0
   11.5980  -33.6950  -32.1470 C   0  0  1  0  0  0  0  0  0  0  0  0
   10.9540  -34.8120  -32.7420 C   0  0  2  0  0  0  0  0  0  0  0  0
   11.5050  -35.8960  -31.8480 O   0  0  0  0  0  0  0  0  0  0  0  0
   11.5230  -33.3670  -30.6350 C   0  0  0  0  0  0  0  0  0  0  0  0
   11.3640  -35.1510  -33.9830 C   0  0  1  0  0  0  0  0  0  0  0  0
    3.0700  -33.0780  -33.1740 C   0  0  0  0  0  0  0  0  0  0  0  0
    4.0840  -34.0930  -38.6070 C   0  0  0  0  0  0  0  0  0  0  0  0
    2.9070  -35.6960  -37.5820 O   0  0  0  0  0  0  0  0  0  0  0  0
    5.8600  -32.7280  -32.7340 N   0  0  0  0  0  0  0  0  0  0  0  0
    9.6770  -34.2570  -32.6780 C   0  0  2  0  0  0  0  0  0  0  0  0
    6.9390  -31.6650  -31.2920 C   0  0  0  0  0  0  0  0  0  0  0  0
  1  6  1  6
  1  5  1  0
  3 28  1  0
  5  7  2  0
  5  8  1  0
  6 17  1  0
  8  2  1  0
  9 11  2  0
 13 10  1  0
 14 30  1  0
 16  9  1  0
 17 32  2  0
 18 12  1  6
 18 27  1  0
 19 18  1  0
 19 14  1  0
 20 26  1  0
 20 13  1  0
 21 29  1  6
 21 12  1  0
 22 15  1  1
 22 25  1  0
 23 31  1  0
 23 22  1  0
 23 24  1  1
 25  8  1  0
 26  4  1  1
 26 23  1  0
 27 16  1  0
 28 21  1  0
 30 17  1  0
 30  9  1  0
 31 10  1  1
 31  1  1  0
 32 11  1  0
 32  7  1  0
M  END
$$$$

     RDKit          3D

 21 26  0  0  0  0  0  0  0  0999 V2000
    8.3000  -32.4830  -31.8200 C   0  0  0  0  0  0  0  0  0  0  0  0
    7.4530  -33.2910  -33.8530 C   0  0  0  0  0  0  0  0  0  0  0  0
    6.2420  -32.6260  -32.8860 C   0  0  0  0  0  0  0  0  0  0  0  0
    6.3260  -31.9820  -31.9100 C   0  0  0  0  0  0  0  0  0  0  0  0
   10.0910  -33.5430  -32.3420 C   0  0  0  0  0  0  0  0  0  0  0  0
    9.6800  -34.8540  -32.6600 C   0  0  0  0  0  0  0  0  0  0  0  0
    8.0830  -34.3260  -33.1140 C   0  0  1  0  0  0  0  0  0  0  0  0
    9.0680  -34.0340  -33.0140 C   0  0  2  0  0  0  0  0  0  0  0  0
    7.9150  -34.9970  -34.5930 C   0  0  2  0  0  0  0  0  0  0  0  0
    9.6470  -34.7850  -33.5290 C   0  0  1  0  0  0  0  0  0  0  0  0
    5.9210  -34.1600  -34.6390 C   0  0  0  0  0  0  0  0  0  0  0  0
    7.1880  -34.9470  -34.7960 C   0  0  0  0  0  0  0  0  0  0  0  0
    9.8130  -32.6810  -31.6460 C   0  0  0  0  0  0  0  0  0  0  0  0
    7.4010  -31.8010  -31.1290 C   0  0  0  0  0  0  0  0  0  0  0  0
    5.2100  -31.4270  -31.4810 O   0  0  0  0  0  0  0  0  0  0  0  0
    7.9800  -33.2800  -32.8390 C   0  0  2  0  0  0  0  0  0  0  0  0
    9.2670  -32.8550  -32.1160 C   0  0  0  0  0  0  0  0  0  0  0  0
    6.2480  -35.1040  -35.2290 C   0  0  0  0  0  0  0  0  0  0  0  0
    9.0250  -35.4840  -33.9640 C   0  0  0  0  0  0  0  0  0  0  0  0
    7.8970  -34.4670  -34.0440 C   0  0  1  0  0  0  0  0  0  0  0  0
    5.8000  -33.3480  -33.6770 C   0  0  0  0  0  0  0  0  0  0  0  0
  1 17  1  0
  1 14  1  0
  2 16  1  0
  3  4  2  0
  4 15  1  0
  4 14  1  0
  5 17  1  0
  7  8  1  0
  7 16  1  6
  8 16  1  0
  8  6  1  1
  9 20  1  0
  9 19  1  1
 10  8  1  0
 10  6  1  6
 11 21  1  0
 12  9  1  0
 16  1  1  1
 17 13  2  0
 18 12  1  0
 18 11  1  0
 19 10  1  0
 20  2  1  6
 20 10  1  0
 20  7  1  0
 21  3  2  0
M  END
$$$$

     RDKit          3D

 17 19  0  0  0  0  0  0  0  0999 V2000
    8.4170  -33.3250  -32.3340 C   0  0  0  0  0  0  0  0  0  0  0  0
    4.9290  -32.4540  -32.4730 O   0  0  0  0  0  0  0  0  0  0  0  0
    9.2530  -34.3230  -32.9890 C   0  0  0  0  0  0  0  0  0  0  0  0
    6.2300  -32.2160  -32.1990 C   0  0  0  0  0  0  0  0  0  0  0  0
   10.7660  -36.3840  -33.9390 N   0  0  0  0  0  0  0  0  0  0  0  0
    7.1340  -33.2180  -32.8850 C   0  0  0  0  0  0  0  0  0  0  0  0
    8.7410  -35.2330  -33.8120 C   0  0  0  0  0  0  0  0  0  0  0  0
    4.2630  -31.3230  -32.0950 C   0  0  0  0  0  0  0  0  0  0  0  0
    6.7470  -31.5340  -31.3850 N   0  0  0  0  0  0  0  0  0  0  0  0
    7.9010  -31.6440  -30.8980 C   0  0  0  0  0  0  0  0  0  0  0  0
    2.7000  -31.8190  -32.1250 C   0  0  0  0  0  0  0  0  0  0  0  0
    9.4980  -36.3090  -34.1980 C   0  0  0  0  0  0  0  0  0  0  0  0
   11.3410  -35.3960  -33.2450 C   0  0  0  0  0  0  0  0  0  0  0  0
   10.6300  -34.3910  -32.7250 C   0  0  0  0  0  0  0  0  0  0  0  0
    8.8420  -32.4810  -31.3590 C   0  0  0  0  0  0  0  0  0  0  0  0
    7.4830  -35.0100  -34.3180 C   0  0  0  0  0  0  0  0  0  0  0  0
    6.6990  -34.0410  -33.8820 C   0  0  0  0  0  0  0  0  0  0  0  0
  1 15  1  0
  2  4  1  0
  2  8  1  0
  3 14  2  0
  3  1  1  0
  4  9  2  0
  5 13  2  0
  6  1  2  0
  6  4  1  0
  7  3  1  0
  9 10  1  0
 11  8  1  0
 12  5  1  0
 12  7  2  0
 13 14  1  0
 15 10  2  0
 16 17  2  0
 16  7  1  0
 17  6  1  0
M  END
$$$$

     RDKit          3D

 21 24  0  0  0  0  0  0  0  0999 V2000
    5.4840  -35.1040  -35.2660 C   0  0  0  0  0  0  0  0  0  0  0  0
    7.6420  -32.4580  -32.5740 C   0  0  0  0  0  0  0  0  0  0  0  0
    5.4210  -33.0210  -34.0120 C   0  0  2  0  0  0  0  0  0  0  0  0
    2.2920  -33.3330  -34.8680 N   0  0  0  0  0  0  0  0  0  0  0  0
    7.0340  -35.3110  -34.9790 C   0  0  0  0  0  0  0  0  0  0  0  0
    9.5560  -35.7470  -34.3350 C   0  0  0  0  0  0  0  0  0  0  0  0
    9.0350  -33.7310  -31.5730 C   0  0  1  0  0  0  0  0  0  0  0  0
    9.8820  -33.2740  -30.6340 O   0  0  0  0  0  0  0  0  0  0  0  0
    3.5550  -33.5880  -35.3710 C   0  0  0  0  0  0  0  0  0  0  0  0
   12.5540  -33.3350  -33.2200 C   0  0  0  0  0  0  0  0  0  0  0  0
    4.6850  -34.0960  -34.4570 C   0  0  1  0  0  0  0  0  0  0  0  0
    8.8650  -32.6320  -32.7360 C   0  0  1  0  0  0  0  0  0  0  0  0
   10.7960  -35.6370  -33.9180 C   0  0  0  0  0  0  0  0  0  0  0  0
    8.8780  -34.7940  -33.7370 C   0  0  1  0  0  0  0  0  0  0  0  0
   11.7640  -34.2140  -30.9070 C   0  0  0  0  0  0  0  0  0  0  0  0
    9.6960  -33.6270  -32.8220 C   0  0  1  0  0  0  0  0  0  0  0  0
    7.6330  -34.4020  -34.1100 C   0  0  0  0  0  0  0  0  0  0  0  0
    6.7150  -33.5270  -33.5420 C   0  0  1  0  0  0  0  0  0  0  0  0
    4.9200  -32.1250  -33.2850 O   0  0  0  0  0  0  0  0  0  0  0  0
   10.5290  -34.8690  -32.6440 C   0  0  2  0  0  0  0  0  0  0  0  0
   11.5630  -33.9540  -32.3380 C   0  0  2  0  0  0  0  0  0  0  0  0
  1  5  1  0
  1 11  1  0
  3 18  1  0
  3 19  1  1
  5 17  2  0
  6 13  1  0
  7  8  1  1
  9  4  1  0
 21 10  1  6
 11  9  1  6
 11  3  1  0
 12  2  1  6
 12  7  1  0
 20 13  1  6
 14  6  1  6
 16 14  1  1
 16 12  1  0
 16 20  1  0
 16  7  1  0
 17 14  1  0
 17 18  1  0
 18  2  1  6
 20 21  1  0
 21 15  1  0
M  END
$$$$

     RDKit          3D

 24 26  0  0  0  0  0  0  0  0999 V2000
    5.1950  -32.8470  -32.6470 C   0  0  0  0  0  0  0  0  0  0  0  0
    4.0340  -35.1270  -36.4340 C   0  0  0  0  0  0  0  0  0  0  0  0
   10.7950  -32.4180  -29.7190 C   0  0  0  0  0  0  0  0  0  0  0  0
    9.5980  -34.7020  -33.8420 C   0  0  0  0  0  0  0  0  0  0  0  0
    3.0040  -33.4290  -34.9310 C   0  0  0  0  0  0  0  0  0  0  0  0
    7.4070  -33.9110  -33.4530 C   0  0  0  0  0  0  0  0  0  0  0  0
    7.6120  -34.8900  -34.2710 N   0  0  0  0  0  0  0  0  0  0  0  0
    8.2980  -33.5210  -32.4840 N   0  0  0  0  0  0  0  0  0  0  0  0
   10.2750  -33.6350  -31.8650 C   0  0  0  0  0  0  0  0  0  0  0  0
   10.1760  -35.9430  -34.3770 C   0  0  0  0  0  0  0  0  0  0  0  0
   12.6250  -33.4800  -30.9210 C   0  0  0  0  0  0  0  0  0  0  0  0
    6.4800  -34.9310  -35.0680 C   0  0  0  0  0  0  0  0  0  0  0  0
    9.7960  -32.9000  -30.7670 C   0  0  0  0  0  0  0  0  0  0  0  0
    4.1560  -34.1960  -35.3530 C   0  0  0  0  0  0  0  0  0  0  0  0
    5.1400  -35.8240  -36.9030 C   0  0  0  0  0  0  0  0  0  0  0  0
    5.6550  -33.5770  -33.6520 N   0  0  0  0  0  0  0  0  0  0  0  0
   11.6960  -33.9490  -32.0190 C   0  0  0  0  0  0  0  0  0  0  0  0
    9.3900  -34.0280  -32.7930 C   0  0  0  0  0  0  0  0  0  0  0  0
    5.9190  -31.4900  -32.5430 C   0  0  0  0  0  0  0  0  0  0  0  0
   11.8480  -33.3830  -29.5170 C   0  0  0  0  0  0  0  0  0  0  0  0
    2.6640  -35.6250  -36.9990 C   0  0  0  0  0  0  0  0  0  0  0  0
    5.9560  -31.2170  -31.1360 O   0  0  0  0  0  0  0  0  0  0  0  0
    5.3460  -34.1970  -34.6870 C   0  0  0  0  0  0  0  0  0  0  0  0
    6.3690  -35.6380  -36.2860 C   0  0  0  0  0  0  0  0  0  0  0  0
  1 19  1  0
  2 14  2  0
  3 20  1  0
  4 18  1  0
  6  8  1  0
  7  6  2  0
  9 13  1  0
 10  4  1  0
 11 20  1  0
 12 23  2  0
 12  7  1  0
 13  3  1  0
 14  5  1  0
 14 23  1  0
 15  2  1  0
 15 24  2  0
 16  6  1  0
 16  1  1  0
 17  9  1  0
 17 11  1  0
 18  8  1  0
 18  9  2  3
 19 22  1  0
 21  2  1  0
 23 16  1  0
 24 12  1  0
M  END
$$$$

     RDKit          3D

 30 36  0  0  0  0  0  0  0  0999 V2000
   12.5410  -33.9050  -33.2290 C   0  0  0  0  0  0  0  0  0  0  0  0
   12.9050  -33.2620  -29.1270 N   0  0  0  0  0  0  0  0  0  0  0  0
   14.1110  -32.8810  -26.9050 N   0  0  0  0  0  0  0  0  0  0  0  0
    6.6260  -33.2530  -32.9860 C   0  0  0  0  0  0  0  0  0  0  0  0
    4.9410  -34.8670  -35.6110 N   0  0  0  0  0  0  0  0  0  0  0  0
   12.9290  -32.8310  -27.8410 C   0  0  0  0  0  0  0  0  0  0  0  0
    4.2640  -32.4150  -32.9550 C   0  0  0  0  0  0  0  0  0  0  0  0
    6.9980  -35.0310  -34.7770 C   0  0  0  0  0  0  0  0  0  0  0  0
    6.2520  -35.4430  -35.6770 N   0  0  0  0  0  0  0  0  0  0  0  0
    2.7160  -34.4870  -36.5030 N   0  0  0  0  0  0  0  0  0  0  0  0
    8.8800  -34.3220  -33.3500 C   0  0  0  0  0  0  0  0  0  0  0  0
    4.5330  -34.2820  -37.8530 C   0  0  0  0  0  0  0  0  0  0  0  0
   10.2360  -33.4640  -31.7180 C   0  0  0  0  0  0  0  0  0  0  0  0
   11.7030  -33.0300  -29.6780 N   0  0  0  0  0  0  0  0  0  0  0  0
   12.6110  -33.5470  -31.8620 C   0  0  0  0  0  0  0  0  0  0  0  0
    8.8410  -33.0100  -31.4200 C   0  0  0  0  0  0  0  0  0  0  0  0
   11.2740  -34.2030  -33.7900 C   0  0  0  0  0  0  0  0  0  0  0  0
   10.9170  -32.3480  -28.8760 C   0  0  0  0  0  0  0  0  0  0  0  0
    5.6240  -32.3660  -32.4560 C   0  0  0  0  0  0  0  0  0  0  0  0
   11.6870  -32.4120  -27.6340 C   0  0  0  0  0  0  0  0  0  0  0  0
    4.0000  -35.0960  -36.6300 C   0  0  1  0  0  0  0  0  0  0  0  0
   10.1500  -34.0080  -32.9950 C   0  0  0  0  0  0  0  0  0  0  0  0
    2.1520  -34.6920  -37.8200 C   0  0  0  0  0  0  0  0  0  0  0  0
    3.9490  -33.2460  -34.0120 C   0  0  0  0  0  0  0  0  0  0  0  0
    4.9880  -34.0530  -34.5660 C   0  0  0  0  0  0  0  0  0  0  0  0
    3.2780  -34.3660  -38.7490 C   0  0  0  0  0  0  0  0  0  0  0  0
   11.4940  -33.3540  -31.0530 C   0  0  0  0  0  0  0  0  0  0  0  0
    8.4210  -35.2170  -34.3790 C   0  0  0  0  0  0  0  0  0  0  0  0
    6.2070  -34.0710  -34.0500 C   0  0  0  0  0  0  0  0  0  0  0  0
    8.0420  -33.4760  -32.5470 C   0  0  0  0  0  0  0  0  0  0  0  0
  1 15  2  0
  2  6  1  0
  4 30  2  0
  4 19  1  0
  5 25  1  0
  6 20  1  0
  6  3  1  0
  7 19  2  0
  8 28  1  0
  9  5  1  0
  9  8  2  0
 11 22  1  0
 11 30  1  0
 13 16  1  0
 13 27  2  0
 14  2  1  0
 14 18  1  0
 15 27  1  0
 17  1  1  0
 17 22  2  0
 18 20  1  0
 21 12  1  0
 21 10  1  0
 21  5  1  1
 22 13  1  0
 23 10  1  0
 24  7  1  0
 25 29  1  0
 25 24  2  0
 26 12  1  0
 26 23  1  0
 27 14  1  0
 28 11  2  0
 29  8  1  0
 29  4  1  0
 30 16  1  0
M  END
$$$$

     RDKit          3D

 30 34  0  0  0  0  0  0  0  0999 V2000
    9.9950  -32.6120  -30.4530 C   0  0  0  0  0  0  0  0  0  0  0  0
    6.4090  -34.6630  -34.5700 C   0  0  0  0  0  0  0  0  0  0  0  0
   10.9810  -35.4730  -34.7100 C   0  0  0  0  0  0  0  0  0  0  0  0
    9.5720  -31.1060  -27.5910 O   0  0  0  0  0  0  0  0  0  0  0  0
    7.1010  -34.5110  -38.9000 C   0  0  0  0  0  0  0  0  0  0  0  0
    7.0690  -34.8160  -37.4040 C   0  0  1  0  0  0  0  0  0  0  0  0
   11.9000  -32.9510  -29.2080 C   0  0  0  0  0  0  0  0  0  0  0  0
    7.8700  -34.9720  -34.9390 C   0  0  0  0  0  0  0  0  0  0  0  0
   10.8490  -34.0800  -32.7810 C   0  0  2  0  0  0  0  0  0  0  0  0
    9.4750  -33.7720  -32.3370 C   0  0  1  0  0  0  0  0  0  0  0  0
    9.6450  -31.5180  -29.7830 C   0  0  0  0  0  0  0  0  0  0  0  0
   10.1260  -31.5950  -28.7470 C   0  0  1  0  0  0  0  0  0  0  0  0
    9.2140  -32.9240  -31.6310 C   0  0  0  0  0  0  0  0  0  0  0  0
   10.2880  -37.6090  -34.5240 O   0  0  0  0  0  0  0  0  0  0  0  0
    7.9900  -35.0620  -36.5040 C   0  0  0  0  0  0  0  0  0  0  0  0
    7.9810  -32.2140  -31.7480 O   0  0  0  0  0  0  0  0  0  0  0  0
   10.9630  -35.3470  -33.2190 C   0  0  1  0  0  0  0  0  0  0  0  0
   11.6860  -33.9620  -31.4950 C   0  0  0  0  0  0  0  0  0  0  0  0
   11.2090  -33.2840  -30.3980 C   0  0  0  0  0  0  0  0  0  0  0  0
    5.5750  -35.3370  -35.6490 C   0  0  0  0  0  0  0  0  0  0  0  0
   12.0170  -31.5850  -27.0810 F   0  0  0  0  0  0  0  0  0  0  0  0
    9.9340  -35.5980  -34.0280 C   0  0  1  0  0  0  0  0  0  0  0  0
    8.6650  -35.0640  -34.1310 C   0  0  1  0  0  0  0  0  0  0  0  0
   13.2020  -33.4720  -29.1090 O   0  0  0  0  0  0  0  0  0  0  0  0
   11.3830  -32.0260  -28.2620 C   0  0  0  0  0  0  0  0  0  0  0  0
    9.3320  -37.0070  -34.3160 C   0  0  0  0  0  0  0  0  0  0  0  0
    5.8020  -34.0000  -39.1900 C   0  0  0  0  0  0  0  0  0  0  0  0
    4.6710  -33.8860  -39.4050 O   0  0  0  0  0  0  0  0  0  0  0  0
    5.7160  -34.7020  -36.9520 O   0  0  0  0  0  0  0  0  0  0  0  0
    8.5030  -34.4770  -32.9030 C   0  0  0  0  0  0  0  0  0  0  0  0
  1 19  1  0
  1 11  1  0
  3 22  1  0
  6  5  1  1
  6 29  1  0
  6 15  1  0
  7 24  1  0
  7 25  2  0
  8  2  1  0
  9 10  1  0
  9 18  1  1
 10 30  1  6
 10 13  1  0
 11 12  1  0
 12 25  1  0
 12  4  1  6
 13  1  2  0
 14 26  1  0
 15  8  2  0
 16 13  1  0
 17  3  1  6
 17  9  1  0
 18 19  2  0
 19  7  1  0
 20  2  1  0
 22 26  1  1
 22 17  1  0
 23  8  1  6
 23 22  1  0
 23 30  1  0
 25 21  1  0
 27  5  1  0
 28 27  1  0
 29 20  1  0
M  END
$$$$

     RDKit          3D

 23 27  0  0  0  0  0  0  0  0999 V2000
    7.6330  -34.4540  -34.2580 C   0  0  0  0  0  0  0  0  0  0  0  0
    8.9460  -34.1370  -33.6790 C   0  0  2  0  0  0  0  0  0  0  0  0
    9.5410  -35.4320  -34.1720 N   0  0  0  0  0  0  0  0  0  0  0  0
   10.5530  -33.6670  -30.7920 C   0  0  0  0  0  0  0  0  0  0  0  0
   11.7750  -33.9690  -30.1270 C   0  0  0  0  0  0  0  0  0  0  0  0
   10.5970  -35.7820  -33.4030 C   0  0  0  0  0  0  0  0  0  0  0  0
    5.2690  -34.2840  -34.6120 C   0  0  0  0  0  0  0  0  0  0  0  0
    5.4530  -35.2280  -35.6280 C   0  0  0  0  0  0  0  0  0  0  0  0
    9.8500  -32.4590  -30.4570 C   0  0  0  0  0  0  0  0  0  0  0  0
    7.7690  -35.4780  -35.2630 C   0  0  0  0  0  0  0  0  0  0  0  0
    9.8890  -34.3380  -31.7700 C   0  0  1  0  0  0  0  0  0  0  0  0
    6.5000  -33.9640  -33.9310 C   0  0  0  0  0  0  0  0  0  0  0  0
   10.1770  -31.6120  -29.4760 C   0  0  0  0  0  0  0  0  0  0  0  0
   12.1560  -32.9640  -29.2470 C   0  0  0  0  0  0  0  0  0  0  0  0
   11.5130  -31.8930  -28.8030 C   0  0  0  0  0  0  0  0  0  0  0  0
    8.5230  -32.2250  -31.5500 S   0  0  0  0  0  0  0  0  0  0  0  0
   10.0410  -35.5730  -32.0550 C   0  0  0  0  0  0  0  0  0  0  0  0
    8.9840  -33.6160  -32.3530 C   0  0  1  0  0  0  0  0  0  0  0  0
    6.6580  -35.8400  -35.9280 C   0  0  0  0  0  0  0  0  0  0  0  0
   13.4310  -33.1840  -28.5090 F   0  0  0  0  0  0  0  0  0  0  0  0
    8.9400  -36.0000  -35.0720 C   0  0  0  0  0  0  0  0  0  0  0  0
    6.3570  -32.7610  -33.1050 O   0  0  0  0  0  0  0  0  0  0  0  0
    4.1430  -35.5850  -36.4640 O   0  0  0  0  0  0  0  0  0  0  0  0
  1 12  2  0
  2  1  1  1
  2 18  1  0
  3 21  1  0
  3  2  1  0
  3  6  1  0
  4  9  1  0
  4  5  2  0
  5 14  1  0
  6 17  1  0
  7 12  1  0
  8  7  2  0
  9 13  2  0
 10 21  1  0
 10  1  1  0
 11 17  1  1
 11  4  1  0
 12 22  1  0
 13 15  1  0
 14 15  2  0
 14 20  1  0
 16  9  1  0
 18 11  1  0
 18 16  1  6
 19  8  1  0
 19 10  2  0
 23  8  1  0
M  END
$$$$

     RDKit          3D

 34 42  0  0  0  0  0  0  0  0999 V2000
    9.4350  -34.0410  -31.5340 C   0  0  2  0  0  0  0  0  0  0  0  0
    5.7970  -33.1800  -33.5980 C   0  0  0  0  0  0  0  0  0  0  0  0
   11.2380  -33.0390  -31.1870 O   0  0  0  0  0  0  0  0  0  0  0  0
   10.7750  -34.4370  -33.5610 C   0  0  2  0  0  0  0  0  0  0  0  0
    3.3970  -32.7410  -33.5810 C   0  0  0  0  0  0  0  0  0  0  0  0
   10.4450  -34.8800  -32.3970 C   0  0  2  0  0  0  0  0  0  0  0  0
    6.9890  -32.8250  -32.9410 C   0  0  0  0  0  0  0  0  0  0  0  0
   10.3880  -36.0600  -31.8910 F   0  0  0  0  0  0  0  0  0  0  0  0
    9.6310  -34.1860  -30.1900 F   0  0  0  0  0  0  0  0  0  0  0  0
    6.9010  -34.9630  -34.6720 C   0  0  0  0  0  0  0  0  0  0  0  0
   13.3730  -33.8600  -32.3570 C   0  0  0  0  0  0  0  0  0  0  0  0
    0.5000  -31.4320  -32.0580 F   0  0  0  0  0  0  0  0  0  0  0  0
    9.5390  -33.7420  -33.2090 S   0  0  1  0  0  0  0  0  0  0  0  0
    2.2660  -32.3190  -33.2960 C   0  0  0  0  0  0  0  0  0  0  0  0
   11.2730  -32.6590  -32.5370 C   0  0  2  0  0  0  0  0  0  0  0  0
   11.5250  -34.1450  -30.2400 F   0  0  0  0  0  0  0  0  0  0  0  0
   10.6940  -35.4450  -34.4920 C   0  0  2  0  0  0  0  0  0  0  0  0
   13.9520  -33.4300  -32.5490 C   0  0  0  0  0  0  0  0  0  0  0  0
   11.8690  -32.4390  -33.4970 O   0  0  0  0  0  0  0  0  0  0  0  0
    8.0970  -33.5220  -33.4540 C   0  0  0  0  0  0  0  0  0  0  0  0
    5.7680  -34.1750  -34.4980 C   0  0  0  0  0  0  0  0  0  0  0  0
    4.7450  -34.2120  -35.0880 C   0  0  0  0  0  0  0  0  0  0  0  0
    4.5790  -34.5400  -36.0280 C   0  0  0  0  0  0  0  0  0  0  0  0
    6.5610  -31.8060  -31.5870 S   0  0  0  0  0  0  0  0  0  0  0  0
    2.5780  -31.3500  -31.1180 C   0  0  0  0  0  0  0  0  0  0  0  0
    4.8900  -32.0770  -31.9110 C   0  0  0  0  0  0  0  0  0  0  0  0
    9.5390  -36.1170  -34.8460 N   0  0  0  0  0  0  0  0  0  0  0  0
    7.9120  -34.7310  -33.8570 N   0  0  0  0  0  0  0  0  0  0  0  0
   10.5320  -36.9930  -34.2590 C   0  0  0  0  0  0  0  0  0  0  0  0
    4.5010  -32.6750  -33.0280 C   0  0  0  0  0  0  0  0  0  0  0  0
   12.1280  -33.7730  -32.8540 C   0  0  2  0  0  0  0  0  0  0  0  0
    1.8900  -31.7210  -32.1530 C   0  0  0  0  0  0  0  0  0  0  0  0
    3.9830  -31.4730  -31.1090 C   0  0  0  0  0  0  0  0  0  0  0  0
   10.2510  -33.5150  -32.2570 C   0  0  1  0  0  0  0  0  0  0  0  0
  1  9  1  6
  2 30  2  0
  2  7  1  0
  3 16  1  0
  4 17  1  6
  4 13  1  0
  4 31  1  0
  4  6  1  0
  5 14  2  0
  5 30  1  0
  6 34  1  0
  6  8  1  1
  6  1  1  0
  7 24  1  0
 10 21  1  0
 10 28  2  0
 13 20  1  1
 13 34  1  0
 13  1  1  0
 14 32  1  0
 34 15  1  1
 15  3  1  6
 17 29  1  1
 18 11  2  0
 19 31  1  0
 19 15  1  0
 20  7  2  0
 21 22  1  0
 21  2  1  0
 23 22  2  0
 25 33  1  0
 26 24  1  0
 26 33  2  0
 27 17  1  0
 27 29  1  0
 28 20  1  0
 30 26  1  0
 31 15  1  0
 31 11  1  1
 32 12  1  0
 32 25  2  0
 34  1  1  0
M  END
$$$$

     RDKit          3D

 34 38  0  0  0  0  0  0  0  0999 V2000
    3.9850  -33.9280  -35.6860 C   0  0  0  0  0  0  0  0  0  0  0  0
    4.8920  -33.2700  -33.6090 C   0  0  0  0  0  0  0  0  0  0  0  0
    9.7670  -33.2280  -31.6610 C   0  0  0  0  0  0  0  0  0  0  0  0
    3.2640  -34.6720  -38.4320 C   0  0  0  0  0  0  0  0  0  0  0  0
    9.2590  -35.1810  -33.1820 C   0  0  2  0  0  0  0  0  0  0  0  0
    8.2550  -34.8800  -33.0130 C   0  0  0  0  0  0  0  0  0  0  0  0
   12.0250  -32.8120  -29.1430 O   0  0  0  0  0  0  0  0  0  0  0  0
   11.6630  -34.6230  -30.2230 O   0  0  0  0  0  0  0  0  0  0  0  0
    7.5750  -32.1870  -31.8920 C   0  0  0  0  0  0  0  0  0  0  0  0
    5.1810  -35.4310  -37.2680 C   0  0  2  0  0  0  0  0  0  0  0  0
   12.3440  -33.4610  -32.9860 C   0  0  0  0  0  0  0  0  0  0  0  0
    6.1700  -34.7890  -35.0510 C   0  0  0  0  0  0  0  0  0  0  0  0
    7.3330  -36.3800  -36.4500 C   0  0  0  0  0  0  0  0  0  0  0  0
    7.4210  -33.7720  -33.3790 C   0  0  1  0  0  0  0  0  0  0  0  0
   10.8070  -34.6200  -33.6890 C   0  0  2  0  0  0  0  0  0  0  0  0
    3.8430  -33.2690  -34.6440 C   0  0  0  0  0  0  0  0  0  0  0  0
    8.6760  -35.3850  -34.4140 C   0  0  1  0  0  0  0  0  0  0  0  0
    9.9850  -36.4000  -32.2320 C   0  0  0  0  0  0  0  0  0  0  0  0
    9.1330  -32.0920  -29.9320 C   0  0  0  0  0  0  0  0  0  0  0  0
    8.3200  -31.4800  -30.7560 C   0  0  0  0  0  0  0  0  0  0  0  0
    7.4420  -35.6460  -35.1290 C   0  0  1  0  0  0  0  0  0  0  0  0
    4.6130  -34.5600  -38.2050 O   0  0  0  0  0  0  0  0  0  0  0  0
   11.4120  -33.4700  -29.9920 C   0  0  0  0  0  0  0  0  0  0  0  0
    9.3920  -37.1240  -34.3840 C   0  0  0  0  0  0  0  0  0  0  0  0
    6.0210  -33.9870  -33.9140 C   0  0  0  0  0  0  0  0  0  0  0  0
   10.3440  -32.8650  -30.7120 C   0  0  1  0  0  0  0  0  0  0  0  0
    9.6670  -34.9390  -35.3030 C   0  0  0  0  0  0  0  0  0  0  0  0
    5.1440  -34.6900  -35.9480 C   0  0  0  0  0  0  0  0  0  0  0  0
    8.5190  -32.9180  -32.5100 C   0  0  2  0  0  0  0  0  0  0  0  0
    4.9800  -32.4950  -32.4500 O   0  0  0  0  0  0  0  0  0  0  0  0
   10.5970  -36.7870  -33.6030 C   0  0  1  0  0  0  0  0  0  0  0  0
    6.6840  -35.5060  -37.5550 C   0  0  0  0  0  0  0  0  0  0  0  0
   11.5260  -35.7240  -34.2450 C   0  0  0  0  0  0  0  0  0  0  0  0
   11.1420  -33.6410  -33.0160 C   0  0  0  0  0  0  0  0  0  0  0  0
  1 16  2  0
  2 30  1  0
  3 26  1  0
  4 22  1  0
  5  6  1  1
  5 18  1  0
  8 23  2  0
  9 20  1  0
 10 22  1  6
 10 28  1  0
 12 25  1  0
 14  6  1  1
 14 29  1  0
 15  5  1  0
 15 34  1  1
 16  2  1  0
 17 27  1  6
 17  5  1  0
 20 19  1  0
 21 13  1  6
 21 12  1  0
 21 17  1  0
 23  7  1  0
 25  2  2  0
 25 14  1  0
 26 23  1  1
 26 19  1  0
 28  1  1  0
 28 12  2  0
 29  9  1  1
 29  3  1  0
 31 24  1  6
 31 18  1  0
 32 10  1  0
 32 13  1  0
 33 15  1  0
 33 31  1  0
 34 11  1  0
M  END
$$$$

     RDKit          3D

 23 26  0  0  0  0  0  0  0  0999 V2000
    5.5970  -34.1900  -34.8620 C   0  0  0  0  0  0  0  0  0  0  0  0
   10.7400  -35.6880  -33.0760 C   0  0  0  0  0  0  0  0  0  0  0  0
    4.8890  -32.7110  -32.9370 C   0  0  0  0  0  0  0  0  0  0  0  0
   10.2350  -33.4820  -32.1380 C   0  0  1  0  0  0  0  0  0  0  0  0
    4.0390  -34.6060  -36.0030 C   0  0  0  0  0  0  0  0  0  0  0  0
    6.0420  -33.0920  -33.1140 C   0  0  0  0  0  0  0  0  0  0  0  0
    3.7780  -33.3840  -33.9760 C   0  0  0  0  0  0  0  0  0  0  0  0
    7.2730  -33.2960  -32.6460 C   0  0  0  0  0  0  0  0  0  0  0  0
    3.4790  -31.4280  -31.1890 C   0  0  0  0  0  0  0  0  0  0  0  0
    6.2860  -33.9520  -34.3960 C   0  0  0  0  0  0  0  0  0  0  0  0
    9.4140  -33.1290  -31.8970 C   0  0  0  0  0  0  0  0  0  0  0  0
    6.0800  -31.3020  -31.1490 C   0  0  0  0  0  0  0  0  0  0  0  0
   10.4130  -34.6160  -31.9240 C   0  0  1  0  0  0  0  0  0  0  0  0
    7.0990  -32.2060  -31.3360 C   0  0  0  0  0  0  0  0  0  0  0  0
    8.3260  -35.9100  -34.6780 C   0  0  0  0  0  0  0  0  0  0  0  0
    4.8300  -31.8370  -31.8360 C   0  0  1  0  0  0  0  0  0  0  0  0
    4.0440  -33.9920  -34.8720 C   0  0  0  0  0  0  0  0  0  0  0  0
   10.5250  -36.7850  -34.0630 C   0  0  0  0  0  0  0  0  0  0  0  0
    8.8130  -34.8540  -33.7630 C   0  0  0  0  0  0  0  0  0  0  0  0
    9.1740  -34.5100  -32.6020 C   0  0  0  0  0  0  0  0  0  0  0  0
    8.1700  -32.9620  -32.2670 C   0  0  2  0  0  0  0  0  0  0  0  0
    9.3860  -36.8780  -34.8270 C   0  0  0  0  0  0  0  0  0  0  0  0
    8.4720  -34.1460  -32.9870 C   0  0  0  0  0  0  0  0  0  0  0  0
  1 10  2  0
  3 16  1  0
  4 13  1  0
  4 11  1  1
  5 17  1  0
  6  3  2  0
  6  8  1  0
  7  3  1  0
 10  6  1  0
 13  2  1  6
 14 12  1  0
 16  9  1  1
 16 12  1  0
 17  1  1  0
 17  7  2  0
 18  2  1  0
 19 23  2  0
 20 23  1  0
 20  4  1  0
 20 13  1  0
 21  8  1  1
 21 11  1  0
 21 14  1  0
 22 15  1  0
 22 18  2  3
 23 21  1  0
M  END
$$$$

     RDKit          3D

 24 30  0  0  0  0  0  0  0  0999 V2000
    6.2140  -34.6590  -34.8110 C   0  0  0  0  0  0  0  0  0  0  0  0
   11.2050  -34.2670  -32.7650 C   0  0  1  0  0  0  0  0  0  0  0  0
    9.3720  -33.0440  -31.4810 C   0  0  0  0  0  0  0  0  0  0  0  0
   10.1030  -34.2560  -32.5480 C   0  0  2  0  0  0  0  0  0  0  0  0
    8.8090  -35.5470  -34.3960 C   0  0  1  0  0  0  0  0  0  0  0  0
    9.2940  -34.7860  -33.3840 C   0  0  1  0  0  0  0  0  0  0  0  0
   10.8830  -34.5200  -31.7700 C   0  0  2  0  0  0  0  0  0  0  0  0
    9.9660  -35.4570  -32.4940 S   0  0  0  0  0  0  0  0  0  0  0  0
    4.9800  -34.1420  -34.9750 C   0  0  0  0  0  0  0  0  0  0  0  0
   10.3330  -33.7520  -30.6220 C   0  0  0  0  0  0  0  0  0  0  0  0
    5.5850  -32.1300  -31.9710 C   0  0  0  0  0  0  0  0  0  0  0  0
    4.2960  -35.6820  -36.7400 N   0  0  0  0  0  0  0  0  0  0  0  0
    4.1740  -34.3650  -36.2600 C   0  0  0  0  0  0  0  0  0  0  0  0
    7.9420  -36.1500  -35.4060 C   0  0  0  0  0  0  0  0  0  0  0  0
    8.4280  -33.6510  -32.4490 C   0  0  0  0  0  0  0  0  0  0  0  0
    7.1510  -34.2370  -33.9310 C   0  0  2  0  0  0  0  0  0  0  0  0
    6.8610  -35.7360  -35.4830 C   0  0  0  0  0  0  0  0  0  0  0  0
    6.5710  -31.8750  -31.8820 C   0  0  0  0  0  0  0  0  0  0  0  0
    7.3000  -33.4860  -33.1100 C   0  0  2  0  0  0  0  0  0  0  0  0
    9.2160  -33.3560  -32.5280 C   0  0  1  0  0  0  0  0  0  0  0  0
   11.6260  -34.5140  -32.7570 C   0  0  0  0  0  0  0  0  0  0  0  0
    8.2200  -34.3730  -33.8160 C   0  0  1  0  0  0  0  0  0  0  0  0
    6.8580  -32.5540  -32.4170 C   0  0  0  0  0  0  0  0  0  0  0  0
   10.4300  -33.6510  -31.6030 C   0  0  1  0  0  0  0  0  0  0  0  0
  1  9  1  0
 16  1  1  6
  2 21  1  6
  2  4  1  0
  7  2  1  6
  4  8  1  6
  4  7  1  0
  4 24  1  0
  5 14  1  1
 22  5  1  6
  5  6  1  0
  6 20  1  0
  6  8  1  6
  7 24  1  0
 11 18  1  0
 12 13  1  0
 13  9  1  0
 16 22  1  0
 16 19  1  0
 17 14  2  0
 17  1  1  0
 19 15  1  0
 19 23  1  6
 20 15  1  1
 20  3  1  0
 22  6  1  0
 22 19  1  0
 23 18  1  0
 24  3  1  0
 24 10  1  6
M  END
$$$$

     RDKit          3D

 15 16  0  0  0  0  0  0  0  0999 V2000
    1.7870  -33.8390  -36.8200 C   0  0  0  0  0  0  0  0  0  0  0  0
    1.9830  -33.3170  -35.4400 C   0  0  0  0  0  0  0  0  0  0  0  0
    3.7880  -34.4920  -36.6130 N   0  0  0  0  0  0  0  0  0  0  0  0
    8.4080  -32.2230  -32.1740 N   0  0  0  0  0  0  0  0  0  0  0  0
    5.4320  -33.3750  -33.7530 C   0  0  0  0  0  0  0  0  0  0  0  0
    6.3030  -35.2080  -35.1470 O   0  0  0  0  0  0  0  0  0  0  0  0
    3.4950  -33.4210  -35.5060 C   0  0  2  0  0  0  0  0  0  0  0  0
    5.8470  -32.3800  -32.8110 C   0  0  0  0  0  0  0  0  0  0  0  0
    7.1490  -32.1450  -32.4180 C   0  0  0  0  0  0  0  0  0  0  0  0
    6.4440  -34.2930  -34.2210 C   0  0  0  0  0  0  0  0  0  0  0  0
    8.3100  -33.4650  -32.9210 C   0  0  0  0  0  0  0  0  0  0  0  0
    7.5370  -34.1810  -33.4660 N   0  0  0  0  0  0  0  0  0  0  0  0
    4.1480  -33.6830  -34.1070 C   0  0  2  0  0  0  0  0  0  0  0  0
    3.2800  -32.8410  -33.1900 O   0  0  0  0  0  0  0  0  0  0  0  0
    2.8320  -34.3760  -37.3650 N   0  0  0  0  0  0  0  0  0  0  0  0
  1  2  1  0
  3  7  1  0
  5  8  2  0
  6 10  2  0
  7  2  1  1
  7 13  1  0
  8  9  1  0
  9  4  1  0
 10  5  1  0
 10 12  1  0
 11  4  1  0
 12 11  1  0
 13  5  1  0
 13 14  1  1
 15  1  1  0
 15  3  1  0
M  END
$$$$

     RDKit          3D

 19 21  0  0  0  0  0  0  0  0999 V2000
    6.1030  -34.5730  -35.5500 C   0  0  0  0  0  0  0  0  0  0  0  0
    7.9400  -32.1370  -31.1810 C   0  0  0  0  0  0  0  0  0  0  0  0
    9.8250  -33.2090  -31.0920 N   0  0  0  0  0  0  0  0  0  0  0  0
    6.8060  -35.4900  -34.5950 C   0  0  0  0  0  0  0  0  0  0  0  0
    7.8860  -34.6110  -33.9630 C   0  0  2  0  0  0  0  0  0  0  0  0
    9.1130  -35.5700  -33.8290 C   0  0  0  0  0  0  0  0  0  0  0  0
    6.6890  -32.5220  -33.0860 C   0  0  2  0  0  0  0  0  0  0  0  0
    9.8690  -32.2910  -30.2810 C   0  0  0  0  0  0  0  0  0  0  0  0
    8.5940  -33.2230  -31.8040 C   0  0  0  0  0  0  0  0  0  0  0  0
    6.7660  -31.7820  -31.8370 N   0  0  0  0  0  0  0  0  0  0  0  0
    5.4590  -31.7420  -31.1990 C   0  0  0  0  0  0  0  0  0  0  0  0
   10.1030  -35.3240  -32.1700 O   0  0  0  0  0  0  0  0  0  0  0  0
   10.1430  -35.0380  -33.1630 C   0  0  0  0  0  0  0  0  0  0  0  0
    5.4130  -33.0640  -33.4940 C   0  0  0  0  0  0  0  0  0  0  0  0
    5.0840  -33.7870  -34.8670 C   0  0  0  0  0  0  0  0  0  0  0  0
    7.7000  -33.7020  -32.8960 C   0  0  2  0  0  0  0  0  0  0  0  0
    8.6880  -31.6060  -30.2410 C   0  0  0  0  0  0  0  0  0  0  0  0
   10.8600  -32.0490  -29.6040 O   0  0  0  0  0  0  0  0  0  0  0  0
   11.3780  -34.6360  -33.8800 C   0  0  0  0  0  0  0  0  0  0  0  0
  1 15  1  0
  1  4  1  0
  2 17  2  0
  3  8  1  0
  4  5  1  0
  5  6  1  1
  5 16  1  0
  6 13  1  0
  7 14  1  1
  7 16  1  0
  7 10  1  0
  8 17  1  0
  8 18  2  0
  9  2  1  0
  9  3  2  0
 10 11  1  0
 10  2  1  0
 13 12  2  0
 15 14  1  0
 16  9  1  6
 19 13  1  0
M  END
$$$$

     RDKit          3D

 30 32  0  0  0  0  0  0  0  0999 V2000
   10.1870  -35.0790  -31.3360 F   0  0  0  0  0  0  0  0  0  0  0  0
   10.2190  -33.0250  -30.0540 O   0  0  0  0  0  0  0  0  0  0  0  0
    4.2390  -33.5470  -37.0330 C   0  0  0  0  0  0  0  0  0  0  0  0
    6.3830  -33.8360  -33.9460 C   0  0  0  0  0  0  0  0  0  0  0  0
   10.2510  -33.5900  -31.4970 C   0  0  2  0  0  0  0  0  0  0  0  0
    7.6380  -33.5500  -33.1620 C   0  0  1  0  0  0  0  0  0  0  0  0
    5.1710  -33.6510  -33.4260 C   0  0  0  0  0  0  0  0  0  0  0  0
   10.1140  -33.2680  -32.8170 C   0  0  0  0  0  0  0  0  0  0  0  0
   12.1880  -33.9250  -32.8190 C   0  0  0  0  0  0  0  0  0  0  0  0
   12.1540  -33.0500  -31.8510 C   0  0  0  0  0  0  0  0  0  0  0  0
   10.8130  -35.3850  -33.5080 C   0  0  0  0  0  0  0  0  0  0  0  0
   11.5400  -32.7860  -29.7470 C   0  0  0  0  0  0  0  0  0  0  0  0
    3.2570  -34.8330  -38.0650 C   0  0  0  0  0  0  0  0  0  0  0  0
    2.9140  -33.3940  -32.5230 O   0  0  0  0  0  0  0  0  0  0  0  0
   13.0740  -34.4440  -29.8220 O   0  0  0  0  0  0  0  0  0  0  0  0
    3.3120  -33.0900  -34.9600 C   0  0  0  0  0  0  0  0  0  0  0  0
    5.3170  -34.2470  -35.6460 C   0  0  2  0  0  0  0  0  0  0  0  0
    4.3070  -33.7350  -35.7420 N   0  0  0  0  0  0  0  0  0  0  0  0
   11.2730  -34.2020  -33.3900 C   0  0  0  0  0  0  0  0  0  0  0  0
    4.8030  -35.5540  -36.8710 C   0  0  0  0  0  0  0  0  0  0  0  0
    8.8640  -33.9030  -33.5270 C   0  0  0  0  0  0  0  0  0  0  0  0
    9.2390  -35.3380  -33.4380 C   0  0  0  0  0  0  0  0  0  0  0  0
    7.6270  -32.2850  -32.3310 C   0  0  0  0  0  0  0  0  0  0  0  0
    9.7310  -33.0400  -31.8570 C   0  0  0  0  0  0  0  0  0  0  0  0
    8.5260  -32.2800  -31.5580 C   0  0  0  0  0  0  0  0  0  0  0  0
    2.4280  -35.3260  -37.3690 C   0  0  0  0  0  0  0  0  0  0  0  0
   12.4290  -33.6030  -30.5520 C   0  0  0  0  0  0  0  0  0  0  0  0
    6.3950  -34.4630  -35.1110 C   0  0  0  0  0  0  0  0  0  0  0  0
    3.8230  -33.4200  -33.4270 C   0  0  0  0  0  0  0  0  0  0  0  0
    4.3770  -34.6560  -37.7680 C   0  0  2  0  0  0  0  0  0  0  0  0
  2 12  1  0
  4  7  2  0
  5  1  1  1
  5  2  1  0
  6  4  1  6
  6 23  1  0
  8 24  2  0
  9 10  1  0
 10 27  1  0
 11 22  1  0
 11 19  1  0
 13 26  2  0
 16 29  1  0
 17 20  1  1
 17 28  1  0
 18  3  1  0
 18 17  1  0
 18 16  1  0
 19  9  1  0
 21 22  1  0
 21  6  1  0
 23 25  1  0
 24 25  1  0
 24  5  1  0
 27 15  1  0
 27 12  1  0
 28  4  1  0
 29  7  2  0
 29 14  1  0
 30 13  1  1
 30  3  1  0
 30 20  1  0
M  END
$$$$

     RDKit          3D

 16 17  0  0  0  0  0  0  0  0999 V2000
    6.9200  -32.2560  -32.1860 O   0  0  0  0  0  0  0  0  0  0  0  0
    6.6950  -35.0300  -34.9490 C   0  0  0  0  0  0  0  0  0  0  0  0
    4.5620  -34.5180  -35.2760 O   0  0  0  0  0  0  0  0  0  0  0  0
    9.1340  -33.8210  -33.0070 C   0  0  1  0  0  0  0  0  0  0  0  0
    8.9290  -33.2600  -31.6590 C   0  0  0  0  0  0  0  0  0  0  0  0
    9.6790  -34.6310  -33.2060 C   0  0  0  0  0  0  0  0  0  0  0  0
    5.5390  -34.3700  -34.5930 C   0  0  0  0  0  0  0  0  0  0  0  0
    6.6050  -33.1340  -33.1470 C   0  0  0  0  0  0  0  0  0  0  0  0
    7.8080  -34.7970  -34.4690 C   0  0  0  0  0  0  0  0  0  0  0  0
   10.2260  -35.0560  -33.2480 O   0  0  0  0  0  0  0  0  0  0  0  0
   10.6600  -32.6580  -29.8580 O   0  0  0  0  0  0  0  0  0  0  0  0
    7.8020  -33.9280  -33.5140 C   0  0  0  0  0  0  0  0  0  0  0  0
   10.6160  -34.3830  -31.4600 C   0  0  0  0  0  0  0  0  0  0  0  0
    9.0540  -35.0380  -34.7320 C   0  0  0  0  0  0  0  0  0  0  0  0
    5.4040  -33.4420  -33.5700 C   0  0  0  0  0  0  0  0  0  0  0  0
   10.2230  -33.1310  -31.3100 C   0  0  1  0  0  0  0  0  0  0  0  0
  2  7  1  0
  2  9  2  0
  3  7  2  0
  4  5  1  1
  5 16  1  0
  6  4  1  0
  7 15  1  0
  8  1  1  0
  9 12  1  0
 10  6  2  0
 12  8  2  0
 12  4  1  0
 14  9  1  0
 14  6  1  0
 15  8  1  0
 16 13  1  1
 16 11  1  0
M  END
$$$$

     RDKit          3D

 22 26  0  0  0  0  0  0  0  0999 V2000
    4.5930  -32.1770  -33.0260 C   0  0  0  0  0  0  0  0  0  0  0  0
    9.3660  -33.2390  -30.5650 C   0  0  2  0  0  0  0  0  0  0  0  0
    3.8890  -34.1310  -35.5180 C   0  0  0  0  0  0  0  0  0  0  0  0
    9.9140  -35.8640  -34.0200 C   0  0  0  0  0  0  0  0  0  0  0  0
   11.3240  -34.3610  -32.5420 O   0  0  0  0  0  0  0  0  0  0  0  0
   10.8980  -33.2390  -30.2680 C   0  0  1  0  0  0  0  0  0  0  0  0
    7.6970  -35.0570  -34.2870 C   0  0  1  0  0  0  0  0  0  0  0  0
   10.1740  -33.4980  -31.6580 C   0  0  1  0  0  0  0  0  0  0  0  0
    8.4730  -34.1710  -33.6900 C   0  0  2  0  0  0  0  0  0  0  0  0
    5.5670  -33.9110  -34.0300 C   0  0  0  0  0  0  0  0  0  0  0  0
    5.6940  -35.7300  -35.2340 O   0  0  0  0  0  0  0  0  0  0  0  0
   10.6940  -34.1900  -32.3230 C   0  0  0  0  0  0  0  0  0  0  0  0
    9.7800  -34.6130  -33.2940 C   0  0  1  0  0  0  0  0  0  0  0  0
    8.4860  -36.2300  -34.5750 C   0  0  0  0  0  0  0  0  0  0  0  0
    3.8100  -32.6720  -33.9330 N   0  0  0  0  0  0  0  0  0  0  0  0
    4.2390  -33.6410  -34.6800 C   0  0  0  0  0  0  0  0  0  0  0  0
    6.2980  -34.9370  -34.4840 C   0  0  0  0  0  0  0  0  0  0  0  0
    8.4520  -32.5040  -32.5220 C   0  0  0  0  0  0  0  0  0  0  0  0
    8.4100  -33.0460  -32.8080 C   0  0  0  0  0  0  0  0  0  0  0  0
    9.8110  -32.0030  -29.9910 C   0  0  0  0  0  0  0  0  0  0  0  0
    6.8830  -32.4170  -32.3990 C   0  0  0  0  0  0  0  0  0  0  0  0
    5.7990  -32.8670  -33.1140 C   0  0  0  0  0  0  0  0  0  0  0  0
  2  6  1  0
  2 20  1  6
  3 16  1  0
  4 13  1  0
  5 12  2  0
  6 20  1  6
  7 14  1  1
  7  9  1  0
  8 12  1  1
  8  2  1  0
  8  6  1  0
  9 13  1  0
  9 19  1  1
 10 22  1  0
 11 17  2  0
 13 12  1  1
 14  4  1  0
 15  1  2  0
 16 10  2  0
 16 15  1  0
 17  7  1  0
 17 10  1  0
 18 21  1  0
 19 18  1  0
 22  1  1  0
 22 21  1  0
M  END
$$$$

     RDKit          3D

 20 23  0  0  0  0  0  0  0  0999 V2000
    9.9450  -33.2290  -30.0920 C   0  0  0  0  0  0  0  0  0  0  0  0
   10.9100  -33.6350  -32.0560 C   0  0  0  0  0  0  0  0  0  0  0  0
    8.3940  -35.2080  -33.7200 N   0  0  0  0  0  0  0  0  0  0  0  0
    9.7610  -33.3560  -31.4370 C   0  0  0  0  0  0  0  0  0  0  0  0
    5.5370  -34.6820  -35.5820 N   0  0  0  0  0  0  0  0  0  0  0  0
   11.1420  -33.3430  -29.5380 C   0  0  0  0  0  0  0  0  0  0  0  0
    7.3710  -32.7920  -32.4960 C   0  0  0  0  0  0  0  0  0  0  0  0
   10.4650  -34.4040  -33.1580 N   0  0  0  0  0  0  0  0  0  0  0  0
    6.7110  -33.4980  -33.5110 C   0  0  0  0  0  0  0  0  0  0  0  0
    4.7130  -33.8860  -34.6910 C   0  0  0  0  0  0  0  0  0  0  0  0
    4.9920  -34.9890  -36.8940 C   0  0  0  0  0  0  0  0  0  0  0  0
    8.7020  -33.4450  -32.2950 C   0  0  1  0  0  0  0  0  0  0  0  0
   12.0540  -33.5850  -31.5880 C   0  0  0  0  0  0  0  0  0  0  0  0
    9.1420  -34.3200  -33.2270 C   0  0  0  0  0  0  0  0  0  0  0  0
    6.9930  -31.7510  -31.9050 C   0  0  0  0  0  0  0  0  0  0  0  0
    3.5330  -33.8710  -34.9100 O   0  0  0  0  0  0  0  0  0  0  0  0
    5.4140  -33.2480  -33.7820 N   0  0  0  0  0  0  0  0  0  0  0  0
   12.3450  -33.3150  -30.2780 C   0  0  0  0  0  0  0  0  0  0  0  0
    6.6240  -35.1810  -35.1500 C   0  0  0  0  0  0  0  0  0  0  0  0
    7.3480  -34.6460  -34.0730 C   0  0  0  0  0  0  0  0  0  0  0  0
  1  6  2  0
  2 13  1  0
  2  4  2  0
  3 14  2  0
  4  1  1  0
  5 19  1  0
  5 10  1  0
 12  7  1  6
  7 15  2  0
  8  2  1  0
  9  7  1  0
 10 17  1  0
 11  5  1  0
 12 14  1  0
 12  4  1  0
 13 18  2  0
 14  8  1  0
 16 10  2  0
 17  9  2  0
 18  6  1  0
 19 20  2  0
 20  3  1  0
 20  9  1  0
M  END
$$$$

     RDKit          3D

 25 28  0  0  0  0  0  0  0  0999 V2000
   12.3160  -35.4610  -33.4320 O   0  0  0  0  0  0  0  0  0  0  0  0
    7.4040  -35.0520  -34.2640 C   0  0  0  0  0  0  0  0  0  0  0  0
    9.2520  -34.4050  -32.9170 C   0  0  0  0  0  0  0  0  0  0  0  0
   10.2690  -34.2850  -32.5550 N   0  0  0  0  0  0  0  0  0  0  0  0
   12.4810  -33.3680  -32.2900 C   0  0  0  0  0  0  0  0  0  0  0  0
   12.7710  -33.7970  -29.5260 C   0  0  0  0  0  0  0  0  0  0  0  0
    6.5400  -32.2850  -32.4590 C   0  0  0  0  0  0  0  0  0  0  0  0
   11.5560  -33.1350  -29.5110 C   0  0  0  0  0  0  0  0  0  0  0  0
    8.2920  -33.4420  -32.3520 N   0  0  0  0  0  0  0  0  0  0  0  0
   11.1700  -32.3220  -28.4150 C   0  0  0  0  0  0  0  0  0  0  0  0
   14.1800  -32.7230  -26.2380 C   0  0  0  0  0  0  0  0  0  0  0  0
    7.0780  -33.2150  -32.9580 C   0  0  1  0  0  0  0  0  0  0  0  0
   10.6120  -33.2280  -30.7340 C   0  0  2  0  0  0  0  0  0  0  0  0
   10.8000  -35.6690  -33.2500 C   0  0  0  0  0  0  0  0  0  0  0  0
    8.5710  -35.0460  -33.7090 N   0  0  0  0  0  0  0  0  0  0  0  0
    6.1360  -31.2720  -32.1270 C   0  0  0  0  0  0  0  0  0  0  0  0
   13.6670  -33.6890  -28.3930 C   0  0  0  0  0  0  0  0  0  0  0  0
   11.1730  -33.6500  -31.7360 C   0  0  1  0  0  0  0  0  0  0  0  0
    9.2260  -32.7110  -31.0420 C   0  0  0  0  0  0  0  0  0  0  0  0
    5.2820  -34.0990  -34.1760 O   0  0  0  0  0  0  0  0  0  0  0  0
    6.7260  -34.1270  -33.7520 C   0  0  0  0  0  0  0  0  0  0  0  0
   13.2580  -32.8720  -27.3420 C   0  0  0  0  0  0  0  0  0  0  0  0
   12.0060  -32.2860  -27.4670 C   0  0  0  0  0  0  0  0  0  0  0  0
   12.6390  -34.1270  -33.5700 C   0  0  0  0  0  0  0  0  0  0  0  0
    8.6430  -31.8750  -30.4640 O   0  0  0  0  0  0  0  0  0  0  0  0
  1 14  1  0
  2 21  1  0
  2 15  1  0
  3  4  1  0
  3  9  1  0
  4 18  1  0
  6  8  2  0
  6 17  1  0
  7 16  3  0
  8 10  1  0
  9 19  1  0
 10 23  2  0
 12  7  1  1
 12  9  1  0
 13  8  1  6
 14  4  1  0
 15  3  2  0
 17 22  2  0
 18  5  1  6
 18 13  1  0
 19 13  1  0
 19 25  2  0
 21 20  1  0
 21 12  1  0
 22 11  1  0
 23 22  1  0
 24  1  1  0
 24  5  1  0
M  END
$$$$

     RDKit          3D

 29 33  0  0  0  0  0  0  0  0999 V2000
    8.8940  -37.4750  -34.3260 C   0  0  0  0  0  0  0  0  0  0  0  0
   11.1280  -32.4820  -30.9130 C   0  0  0  0  0  0  0  0  0  0  0  0
    8.1410  -35.4180  -34.7730 N   0  0  0  0  0  0  0  0  0  0  0  0
    6.6610  -34.1030  -34.0450 C   0  0  0  0  0  0  0  0  0  0  0  0
    3.5140  -35.9590  -37.3550 O   0  0  0  0  0  0  0  0  0  0  0  0
    5.8640  -35.6970  -37.4440 C   0  0  1  0  0  0  0  0  0  0  0  0
    9.2580  -32.5920  -32.9480 O   0  0  0  0  0  0  0  0  0  0  0  0
   10.0960  -37.8920  -33.3940 C   0  0  0  0  0  0  0  0  0  0  0  0
   10.9100  -34.3580  -33.8340 C   0  0  1  0  0  0  0  0  0  0  0  0
    6.8890  -32.4110  -32.3390 C   0  0  0  0  0  0  0  0  0  0  0  0
   10.1750  -34.4470  -31.3210 C   0  0  0  0  0  0  0  0  0  0  0  0
   12.0890  -34.1360  -32.0210 C   0  0  0  0  0  0  0  0  0  0  0  0
    8.3050  -32.9190  -32.0550 C   0  0  2  0  0  0  0  0  0  0  0  0
    9.2940  -36.0890  -34.9060 C   0  0  1  0  0  0  0  0  0  0  0  0
   10.9440  -36.7410  -33.3550 C   0  0  0  0  0  0  0  0  0  0  0  0
    7.1990  -35.8070  -36.8500 C   0  0  0  0  0  0  0  0  0  0  0  0
   10.5510  -32.9140  -33.2440 O   0  0  0  0  0  0  0  0  0  0  0  0
    6.0660  -33.0970  -33.3060 C   0  0  0  0  0  0  0  0  0  0  0  0
   11.0270  -33.4310  -31.7630 C   0  0  2  0  0  0  0  0  0  0  0  0
    4.6900  -35.8450  -36.4610 C   0  0  1  0  0  0  0  0  0  0  0  0
   12.1020  -34.2340  -33.3260 C   0  0  0  0  0  0  0  0  0  0  0  0
    6.0670  -34.7440  -35.0130 C   0  0  0  0  0  0  0  0  0  0  0  0
   10.4370  -35.6870  -33.9780 C   0  0  0  0  0  0  0  0  0  0  0  0
    7.1400  -35.3340  -35.4990 C   0  0  2  0  0  0  0  0  0  0  0  0
    5.5790  -34.6880  -38.2240 O   0  0  0  0  0  0  0  0  0  0  0  0
    8.8560  -33.2950  -30.7570 C   0  0  0  0  0  0  0  0  0  0  0  0
    5.0060  -32.5620  -33.4080 O   0  0  0  0  0  0  0  0  0  0  0  0
    7.8670  -34.6220  -33.9070 C   0  0  0  0  0  0  0  0  0  0  0  0
    4.7440  -34.8180  -35.4860 C   0  0  0  0  0  0  0  0  0  0  0  0
  1  8  1  0
  3 28  1  0
  4 28  1  0
  4 18  1  0
  6 25  1  1
  6 16  1  0
  6 20  1  0
  7 13  1  0
  8 15  1  0
  9 21  1  1
  9 17  1  0
 11 26  1  0
 12 19  1  0
 13 10  1  1
 13 26  1  0
 14  3  1  0
 14  1  1  1
 14 23  1  0
 17  7  1  0
 18 10  1  0
 19 11  1  0
 19  2  1  1
 20  5  1  6
 20 29  1  0
 21 12  1  0
 22  4  2  0
 23  9  1  0
 23 15  1  0
 24 16  1  6
 24 22  1  0
 24  3  1  0
 27 18  2  0
 29 22  1  0
M  END
$$$$

     RDKit          3D

 19 21  0  0  0  0  0  0  0  0999 V2000
   10.1940  -36.1350  -34.2880 C   0  0  0  0  0  0  0  0  0  0  0  0
    4.3940  -34.8860  -37.8360 C   0  0  0  0  0  0  0  0  0  0  0  0
    7.0560  -34.2210  -34.2070 C   0  0  2  0  0  0  0  0  0  0  0  0
    6.2290  -34.6280  -35.4910 C   0  0  2  0  0  0  0  0  0  0  0  0
    7.0550  -33.2570  -33.1730 C   0  0  0  0  0  0  0  0  0  0  0  0
    9.4860  -33.3880  -32.2600 N   0  0  0  0  0  0  0  0  0  0  0  0
    8.3450  -35.0470  -34.0470 C   0  0  1  0  0  0  0  0  0  0  0  0
    4.1640  -34.4600  -34.1400 C   0  0  0  0  0  0  0  0  0  0  0  0
    4.8010  -35.0610  -35.3150 N   0  0  0  0  0  0  0  0  0  0  0  0
   10.7280  -35.2780  -33.2410 C   0  0  0  0  0  0  0  0  0  0  0  0
    6.8630  -35.2190  -36.8820 C   0  0  0  0  0  0  0  0  0  0  0  0
    5.5790  -32.6830  -33.2640 C   0  0  0  0  0  0  0  0  0  0  0  0
    7.4020  -32.5140  -32.2530 O   0  0  0  0  0  0  0  0  0  0  0  0
    4.4220  -32.9590  -34.1880 C   0  0  0  0  0  0  0  0  0  0  0  0
    9.7400  -34.2890  -32.8180 C   0  0  0  0  0  0  0  0  0  0  0  0
    8.9620  -36.0380  -34.7520 C   0  0  0  0  0  0  0  0  0  0  0  0
    5.8690  -35.3200  -38.0700 C   0  0  0  0  0  0  0  0  0  0  0  0
    3.8150  -35.2990  -36.4510 C   0  0  0  0  0  0  0  0  0  0  0  0
    8.9530  -34.0600  -33.3450 C   0  0  0  0  0  0  0  0  0  0  0  0
  1 10  1  0
  2 18  1  0
  3  7  1  0
  3  5  1  6
  4 11  1  1
  4  9  1  0
  4  3  1  0
  5 13  2  0
  7 16  1  6
  7 19  1  0
  9 18  1  0
  9  8  1  0
 10 15  1  0
 12  5  1  0
 14  8  1  0
 14 12  1  0
 15  6  2  0
 16  1  1  0
 17  2  1  0
 17 11  2  0
 19 15  1  0
M  END
$$$$

     RDKit          3D

 23 25  0  0  0  0  0  0  0  0999 V2000
    6.0850  -32.4640  -32.6610 N   0  0  0  0  0  0  0  0  0  0  0  0
   14.3200  -33.9030  -31.8780 C   0  0  0  0  0  0  0  0  0  0  0  0
    8.4970  -36.7100  -34.5550 C   0  0  0  0  0  0  0  0  0  0  0  0
    9.0640  -33.7330  -32.7400 C   0  0  2  0  0  0  0  0  0  0  0  0
   14.0710  -34.0740  -29.6000 C   0  0  0  0  0  0  0  0  0  0  0  0
    9.2110  -34.6890  -33.6400 C   0  0  0  0  0  0  0  0  0  0  0  0
    9.9180  -33.2090  -31.8430 C   0  0  0  0  0  0  0  0  0  0  0  0
    8.5210  -32.9880  -32.1040 C   0  0  2  0  0  0  0  0  0  0  0  0
    6.8350  -31.7100  -31.5310 C   0  0  0  0  0  0  0  0  0  0  0  0
   15.4420  -34.6960  -32.2170 C   0  0  0  0  0  0  0  0  0  0  0  0
   11.8550  -33.0800  -28.8420 C   0  0  0  0  0  0  0  0  0  0  0  0
   10.5870  -35.1790  -33.8570 C   0  0  0  0  0  0  0  0  0  0  0  0
   10.9180  -33.8640  -29.3090 O   0  0  0  0  0  0  0  0  0  0  0  0
   13.2450  -33.2450  -28.6100 C   0  0  0  0  0  0  0  0  0  0  0  0
    9.7820  -36.9960  -34.7100 C   0  0  0  0  0  0  0  0  0  0  0  0
   13.5320  -33.7700  -30.8990 N   0  0  0  0  0  0  0  0  0  0  0  0
   11.0280  -33.1930  -31.6610 C   0  0  0  0  0  0  0  0  0  0  0  0
   11.6530  -32.0670  -28.9660 O   0  0  0  0  0  0  0  0  0  0  0  0
    8.0010  -32.2490  -31.2980 N   0  0  0  0  0  0  0  0  0  0  0  0
    7.3260  -33.0880  -32.8800 N   0  0  0  0  0  0  0  0  0  0  0  0
   12.3950  -33.1490  -31.3200 C   0  0  0  0  0  0  0  0  0  0  0  0
   10.9000  -36.3200  -34.4830 C   0  0  0  0  0  0  0  0  0  0  0  0
    8.1670  -35.4070  -33.9800 C   0  0  0  0  0  0  0  0  0  0  0  0
  1  9  1  0
  2 16  1  0
  3 23  2  0
  4  6  1  1
  4  8  1  0
  4  7  1  0
  5 14  1  0
  7 17  2  0
  8 20  1  6
  8  7  1  0
  8 19  1  0
  9 19  1  0
 10  2  1  0
 11 14  1  0
 12  6  2  0
 13 11  2  0
 15  3  1  0
 15 22  2  0
 16  5  1  0
 17 21  2  0
 18 11  1  0
 20  1  1  0
 21 16  1  0
 22 12  1  0
 23  6  1  0
M  END
$$$$

     RDKit          3D

 27 32  0  0  0  0  0  0  0  0999 V2000
   10.6270  -34.0520  -33.3410 C   0  0  1  0  0  0  0  0  0  0  0  0
    5.4120  -35.4950  -37.7190 O   0  0  0  0  0  0  0  0  0  0  0  0
   11.8420  -33.4750  -33.3120 N   0  0  0  0  0  0  0  0  0  0  0  0
    7.9220  -31.7600  -31.8160 C   0  0  0  0  0  0  0  0  0  0  0  0
   13.4020  -33.6450  -34.0140 F   0  0  0  0  0  0  0  0  0  0  0  0
    6.9230  -33.3600  -33.0060 C   0  0  1  0  0  0  0  0  0  0  0  0
    3.9260  -33.8030  -36.2940 C   0  0  0  0  0  0  0  0  0  0  0  0
    9.7740  -34.9940  -33.3710 C   0  0  2  0  0  0  0  0  0  0  0  0
   12.1390  -35.4770  -34.1050 C   0  0  0  0  0  0  0  0  0  0  0  0
    7.2940  -36.2950  -36.5890 O   0  0  0  0  0  0  0  0  0  0  0  0
    5.8150  -33.6570  -33.4150 N   0  0  0  0  0  0  0  0  0  0  0  0
    3.7090  -34.7950  -38.5160 F   0  0  0  0  0  0  0  0  0  0  0  0
    5.4650  -34.1000  -34.5560 C   0  0  1  0  0  0  0  0  0  0  0  0
    8.5360  -33.1610  -32.3000 C   0  0  0  0  0  0  0  0  0  0  0  0
    7.4430  -32.5960  -32.1150 C   0  0  1  0  0  0  0  0  0  0  0  0
    8.8490  -36.0020  -34.8440 O   0  0  0  0  0  0  0  0  0  0  0  0
   11.4970  -36.3620  -34.5620 C   0  0  0  0  0  0  0  0  0  0  0  0
   10.1160  -36.2080  -34.0970 C   0  0  1  0  0  0  0  0  0  0  0  0
    9.3060  -33.7150  -33.0270 C   0  0  1  0  0  0  0  0  0  0  0  0
    7.7340  -34.1820  -33.7160 C   0  0  1  0  0  0  0  0  0  0  0  0
    4.4810  -34.5590  -37.4100 C   0  0  2  0  0  0  0  0  0  0  0  0
    6.6370  -35.1990  -36.4060 C   0  0  2  0  0  0  0  0  0  0  0  0
   12.4390  -34.3150  -33.7850 C   0  0  2  0  0  0  0  0  0  0  0  0
    6.0430  -35.2610  -35.3910 C   0  0  0  0  0  0  0  0  0  0  0  0
    6.7310  -31.6620  -31.5450 C   0  0  0  0  0  0  0  0  0  0  0  0
    4.3040  -33.8550  -35.2230 C   0  0  0  0  0  0  0  0  0  0  0  0
    7.6250  -35.6420  -34.0670 C   0  0  0  0  0  0  0  0  0  0  0  0
  1  3  1  1
  1 19  1  0
  2 21  1  0
  2 22  1  0
  4 25  1  0
 23  5  1  6
  6 11  1  1
  6 15  1  0
  7 26  1  0
  8  1  1  0
  8 19  1  0
  9 23  1  0
 22 10  1  1
 21 12  1  1
 13 11  1  1
 15 14  1  1
 15  4  1  0
 15 25  1  0
 16 18  1  0
 16 27  1  0
 17  9  1  0
 18 17  1  6
  8 18  1  6
 19 14  1  1
 20 19  1  0
 20  6  1  0
 21  7  1  0
 22 24  1  0
 23  3  1  0
 24 13  1  0
 26 13  1  0
 20 27  1  1
M  END
$$$$

     RDKit          3D

 34 39  0  0  0  0  0  0  0  0999 V2000
    6.8620  -32.0280  -31.8460 C   0  0  0  0  0  0  0  0  0  0  0  0
   11.5350  -34.2290  -33.7700 O   0  0  0  0  0  0  0  0  0  0  0  0
   11.4950  -34.5960  -33.6000 C   0  0  1  0  0  0  0  0  0  0  0  0
    4.1940  -34.3410  -36.1100 C   0  0  0  0  0  0  0  0  0  0  0  0
    4.4680  -33.5750  -34.8400 C   0  0  1  0  0  0  0  0  0  0  0  0
   10.8420  -32.6620  -30.2860 C   0  0  0  0  0  0  0  0  0  0  0  0
    7.8110  -35.5430  -34.7970 C   0  0  0  0  0  0  0  0  0  0  0  0
   11.2540  -34.2110  -32.6920 C   0  0  0  0  0  0  0  0  0  0  0  0
    3.1020  -34.4060  -36.8720 C   0  0  0  0  0  0  0  0  0  0  0  0
    3.3170  -32.8980  -34.4970 C   0  0  0  0  0  0  0  0  0  0  0  0
    6.7250  -33.6680  -33.6410 C   0  0  0  0  0  0  0  0  0  0  0  0
   10.9600  -33.5170  -30.6110 C   0  0  1  0  0  0  0  0  0  0  0  0
   10.3790  -33.2280  -31.9200 C   0  0  1  0  0  0  0  0  0  0  0  0
    5.9730  -32.3220  -33.2680 C   0  0  0  0  0  0  0  0  0  0  0  0
    6.4160  -35.0450  -35.1220 C   0  0  0  0  0  0  0  0  0  0  0  0
    0.7790  -34.0100  -36.7730 O   0  0  0  0  0  0  0  0  0  0  0  0
    5.3440  -35.1720  -36.3360 C   0  0  0  0  0  0  0  0  0  0  0  0
    9.2240  -33.4100  -32.3710 C   0  0  0  0  0  0  0  0  0  0  0  0
    7.8890  -32.3000  -31.4730 C   0  0  0  0  0  0  0  0  0  0  0  0
    2.0950  -32.8820  -35.0870 C   0  0  0  0  0  0  0  0  0  0  0  0
   10.9070  -34.6520  -30.1950 C   0  0  0  0  0  0  0  0  0  0  0  0
   11.6910  -32.8690  -32.0140 C   0  0  0  0  0  0  0  0  0  0  0  0
    2.8820  -35.4420  -37.9320 C   0  0  0  0  0  0  0  0  0  0  0  0
    8.5900  -34.5230  -33.2500 C   0  0  0  0  0  0  0  0  0  0  0  0
    8.4510  -36.4020  -34.7600 O   0  0  0  0  0  0  0  0  0  0  0  0
    9.6610  -35.6900  -32.9020 C   0  0  0  0  0  0  0  0  0  0  0  0
    6.0270  -33.9690  -34.2550 C   0  0  0  0  0  0  0  0  0  0  0  0
   10.1790  -33.8890  -31.4730 C   0  0  1  0  0  0  0  0  0  0  0  0
    7.6870  -33.8690  -33.2080 C   0  0  0  0  0  0  0  0  0  0  0  0
    8.3240  -33.3130  -32.9350 C   0  0  2  0  0  0  0  0  0  0  0  0
   10.5260  -35.1300  -33.9460 C   0  0  1  0  0  0  0  0  0  0  0  0
    9.3940  -35.4820  -34.3430 C   0  0  1  0  0  0  0  0  0  0  0  0
    1.9560  -33.7670  -36.2600 C   0  0  0  0  0  0  0  0  0  0  0  0
    5.6650  -32.1890  -31.9430 C   0  0  0  0  0  0  0  0  0  0  0  0
  1 19  1  0
  2  3  1  0
  3  8  1  1
  4  5  1  0
  5 10  1  1
  5 27  1  0
  7 25  1  0
  9 33  2  0
  9  4  1  0
 11 27  1  0
 11 14  1  0
 11 29  1  0
 12  6  1  1
 12 21  1  0
 13 22  1  6
 13 28  1  0
 13  6  1  0
 14 34  1  0
 15  7  1  0
 15 27  2  0
 16 33  1  0
 17  4  2  0
 17 15  1  0
 18 13  1  0
 20 10  2  0
 23  9  1  0
 24 29  2  0
 28 12  1  0
 28 21  1  6
 29 30  1  0
 30 18  1  1
 30 19  1  0
 31  3  1  0
 31 26  1  1
 32 25  1  6
 32 31  1  0
 32 26  1  0
 33 20  1  0
 34  1  1  0
M  END
$$$$

     RDKit          3D

 35 40  0  0  0  0  0  0  0  0999 V2000
   10.3130  -33.9510  -31.8370 N   0  0  0  0  0  0  0  0  0  0  0  0
   10.8500  -32.5070  -28.8250 C   0  0  0  0  0  0  0  0  0  0  0  0
    7.3750  -31.4820  -30.9510 C   0  0  0  0  0  0  0  0  0  0  0  0
    4.7980  -33.3150  -34.1590 C   0  0  0  0  0  0  0  0  0  0  0  0
    8.0800  -34.2060  -33.2540 C   0  0  0  0  0  0  0  0  0  0  0  0
    4.0070  -35.2250  -36.4360 C   0  0  2  0  0  0  0  0  0  0  0  0
    3.1570  -33.8160  -39.7900 C   0  0  0  0  0  0  0  0  0  0  0  0
   10.2280  -31.6330  -28.5830 O   0  0  0  0  0  0  0  0  0  0  0  0
    6.7780  -34.2830  -34.1170 C   0  0  0  0  0  0  0  0  0  0  0  0
   11.4920  -33.2740  -29.8650 C   0  0  0  0  0  0  0  0  0  0  0  0
   12.5030  -32.3080  -26.8420 C   0  0  0  0  0  0  0  0  0  0  0  0
    9.2700  -33.3510  -31.4340 C   0  0  2  0  0  0  0  0  0  0  0  0
    6.2110  -33.3670  -33.6090 C   0  0  0  0  0  0  0  0  0  0  0  0
   11.3770  -33.7120  -31.1580 C   0  0  0  0  0  0  0  0  0  0  0  0
   12.7320  -33.5840  -29.1010 C   0  0  0  0  0  0  0  0  0  0  0  0
    5.2850  -36.0220  -36.5010 C   0  0  0  0  0  0  0  0  0  0  0  0
    8.8670  -31.0760  -30.0700 C   0  0  0  0  0  0  0  0  0  0  0  0
    5.5030  -34.9430  -35.5060 C   0  0  1  0  0  0  0  0  0  0  0  0
    6.4340  -32.3340  -32.7230 O   0  0  0  0  0  0  0  0  0  0  0  0
    4.0190  -34.2520  -38.5070 C   0  0  0  0  0  0  0  0  0  0  0  0
    1.6610  -34.2200  -39.5510 N   0  0  0  0  0  0  0  0  0  0  0  0
    7.4960  -32.2030  -32.1230 C   0  0  0  0  0  0  0  0  0  0  0  0
   12.9930  -31.2150  -28.7630 F   0  0  0  0  0  0  0  0  0  0  0  0
   12.5010  -33.8930  -31.8100 N   0  0  0  0  0  0  0  0  0  0  0  0
   13.3280  -32.4860  -28.2020 C   0  0  1  0  0  0  0  0  0  0  0  0
    6.6860  -35.0770  -34.9640 C   0  0  0  0  0  0  0  0  0  0  0  0
   11.8080  -34.1740  -33.0800 N   0  0  0  0  0  0  0  0  0  0  0  0
    1.1480  -34.1810  -38.2120 C   0  0  0  0  0  0  0  0  0  0  0  0
    8.2470  -33.3070  -32.5300 C   0  0  0  0  0  0  0  0  0  0  0  0
   11.0440  -32.0100  -27.4310 C   0  0  0  0  0  0  0  0  0  0  0  0
    4.2150  -34.2020  -35.0000 C   0  0  1  0  0  0  0  0  0  0  0  0
    9.4080  -32.3110  -30.7190 C   0  0  0  0  0  0  0  0  0  0  0  0
    2.0100  -35.1510  -37.3620 N   0  0  0  0  0  0  0  0  0  0  0  0
   10.6790  -34.3570  -33.0610 C   0  0  0  0  0  0  0  0  0  0  0  0
    3.3090  -34.4710  -37.3600 O   0  0  0  0  0  0  0  0  0  0  0  0
  1 34  1  0
 12  1  1  6
  1 14  1  0
  2  8  1  0
  3 17  1  0
  4 13  2  0
  5 29  1  0
  6 35  1  6
  6 18  1  0
  6 31  1  0
  7 21  1  0
  7 20  1  0
  8 30  1  0
  9 13  1  0
  9  5  2  0
 10 15  1  0
 10  2  1  0
 12 32  1  0
 13 19  1  0
 14 10  1  0
 15 25  1  0
 16  6  1  0
 18 16  1  1
 18 31  1  0
 18 26  1  0
 19 22  1  0
 20 35  1  0
 21 28  1  0
 22  3  1  0
 23 25  1  0
 24 14  1  0
 25 11  1  1
 26  9  1  0
 27 34  1  0
 27 24  1  0
 28 33  1  0
 29 22  2  0
 29 12  1  0
 31  4  1  6
 32 17  1  0
M  END
$$$$

     RDKit          3D

 19 22  0  0  0  0  0  0  0  0999 V2000
   10.9150  -32.9130  -29.7820 C   0  0  0  0  0  0  0  0  0  0  0  0
    4.3110  -35.7300  -35.6180 C   0  0  0  0  0  0  0  0  0  0  0  0
    6.1810  -33.5060  -34.1170 N   0  0  0  0  0  0  0  0  0  0  0  0
    6.4810  -34.6930  -34.7770 C   0  0  0  0  0  0  0  0  0  0  0  0
   10.6690  -30.9630  -28.3930 C   0  0  0  0  0  0  0  0  0  0  0  0
   10.5890  -33.7560  -30.8460 C   0  0  0  0  0  0  0  0  0  0  0  0
    6.0850  -34.6570  -37.1010 C   0  0  0  0  0  0  0  0  0  0  0  0
    9.1660  -34.5550  -32.4620 C   0  0  0  0  0  0  0  0  0  0  0  0
    7.1490  -33.3140  -33.2170 C   0  0  2  0  0  0  0  0  0  0  0  0
   11.2010  -34.9220  -31.2170 O   0  0  0  0  0  0  0  0  0  0  0  0
    8.6860  -32.3750  -31.3270 C   0  0  2  0  0  0  0  0  0  0  0  0
   10.1120  -31.7470  -29.4960 C   0  0  0  0  0  0  0  0  0  0  0  0
    7.9070  -34.2360  -33.2650 N   0  0  0  0  0  0  0  0  0  0  0  0
    7.5610  -35.0940  -34.1240 N   0  0  0  0  0  0  0  0  0  0  0  0
    9.3960  -33.4760  -31.5780 C   0  0  0  0  0  0  0  0  0  0  0  0
   10.4600  -35.3580  -32.3380 C   0  0  0  0  0  0  0  0  0  0  0  0
    9.0900  -31.4860  -30.2810 C   0  0  0  0  0  0  0  0  0  0  0  0
    5.8510  -35.4090  -35.8610 C   0  0  2  0  0  0  0  0  0  0  0  0
    7.1880  -31.9580  -32.1290 S   0  0  0  0  0  0  0  0  0  0  0  0
  1 12  1  0
  4 14  1  0
  4  3  2  0
  6  1  2  0
 18  7  1  6
  8 16  1  0
  8 15  2  0
  9  3  1  0
  9 19  1  1
 10  6  1  0
 11 17  1  0
 12  5  1  0
 13  9  1  0
 13  8  1  0
 14 13  1  0
 15 11  1  0
 15  6  1  0
 16 10  1  0
 17 12  2  0
 18  2  1  0
 18  4  1  0
 11 19  1  1
M  END
$$$$

     RDKit          3D

 29 33  0  0  0  0  0  0  0  0999 V2000
   10.8120  -32.4850  -29.0270 C   0  0  0  0  0  0  0  0  0  0  0  0
    6.9160  -34.9870  -34.4760 C   0  0  0  0  0  0  0  0  0  0  0  0
    4.9840  -33.0360  -33.8190 C   0  0  0  0  0  0  0  0  0  0  0  0
    9.8920  -34.0220  -32.0260 C   0  0  2  0  0  0  0  0  0  0  0  0
   11.6900  -34.6140  -34.4900 O   0  0  0  0  0  0  0  0  0  0  0  0
    4.5430  -34.1550  -34.5800 C   0  0  0  0  0  0  0  0  0  0  0  0
    3.2690  -34.1630  -35.1640 O   0  0  0  0  0  0  0  0  0  0  0  0
    8.6610  -33.2590  -32.0290 O   0  0  0  0  0  0  0  0  0  0  0  0
    7.2910  -35.9810  -35.2240 C   0  0  0  0  0  0  0  0  0  0  0  0
    3.2770  -35.5390  -36.3980 C   0  0  0  0  0  0  0  0  0  0  0  0
    8.9950  -35.7010  -34.0280 N   0  0  0  0  0  0  0  0  0  0  0  0
   12.1830  -33.9410  -30.9720 C   0  0  0  0  0  0  0  0  0  0  0  0
   12.0710  -32.9300  -28.7900 C   0  0  0  0  0  0  0  0  0  0  0  0
   11.7890  -32.2230  -26.5280 O   0  0  0  0  0  0  0  0  0  0  0  0
    4.6080  -35.9390  -35.9890 C   0  0  0  0  0  0  0  0  0  0  0  0
   12.6080  -32.6580  -27.4410 N   0  0  0  0  0  0  0  0  0  0  0  0
   10.7630  -33.6430  -31.1900 C   0  0  0  0  0  0  0  0  0  0  0  0
    6.5600  -31.9260  -32.2890 C   0  0  0  0  0  0  0  0  0  0  0  0
    9.5510  -36.8860  -34.1800 C   0  0  0  0  0  0  0  0  0  0  0  0
   12.8230  -33.5800  -29.7610 C   0  0  0  0  0  0  0  0  0  0  0  0
   11.0310  -35.3380  -33.8260 C   0  0  0  0  0  0  0  0  0  0  0  0
    9.5920  -34.6960  -33.0840 C   0  0  2  0  0  0  0  0  0  0  0  0
    6.3010  -32.9140  -33.1700 C   0  0  0  0  0  0  0  0  0  0  0  0
    8.5040  -34.7570  -33.4800 C   0  0  1  0  0  0  0  0  0  0  0  0
   10.8770  -36.6410  -33.2520 C   0  0  0  0  0  0  0  0  0  0  0  0
    7.2240  -34.1410  -33.6110 C   0  0  0  0  0  0  0  0  0  0  0  0
   10.1640  -32.7360  -30.3950 C   0  0  0  0  0  0  0  0  0  0  0  0
   13.6810  -32.9450  -27.1740 O   0  0  0  0  0  0  0  0  0  0  0  0
    5.5370  -35.1010  -35.1030 C   0  0  0  0  0  0  0  0  0  0  0  0
  1 13  2  0
  2 26  2  0
  3 23  2  0
  4  8  1  6
  4 17  1  0
  5 21  2  0
  6  3  1  0
  7  6  1  0
  9  2  1  0
 10 15  1  0
 10  7  1  0
 11 19  1  0
 11 24  1  0
 11 22  1  0
 12 20  2  0
 13 16  1  0
 15 29  1  0
 16 28  1  0
 16 14  2  0
 17 12  1  0
 17 27  2  0
 19 25  1  0
 20 13  1  0
 21 25  1  0
 22 21  1  6
 22  4  1  0
 23 18  1  0
 24 26  1  6
 24 22  1  0
 26 23  1  0
 27  1  1  0
 29  6  2  0
 29  2  1  0
M  CHG  2  16   1  28  -1
M  END
$$$$

     RDKit          3D

 16 17  0  0  0  0  0  0  0  0999 V2000
    6.5880  -33.2640  -33.2830 C   0  0  2  0  0  0  0  0  0  0  0  0
   10.1620  -32.3140  -30.0130 C   0  0  0  0  0  0  0  0  0  0  0  0
    6.2590  -31.5460  -31.8210 O   0  0  0  0  0  0  0  0  0  0  0  0
    4.4520  -32.5830  -33.6410 O   0  0  0  0  0  0  0  0  0  0  0  0
    8.2820  -32.5890  -31.6670 C   0  0  0  0  0  0  0  0  0  0  0  0
    8.7880  -31.8880  -30.4780 C   0  0  0  0  0  0  0  0  0  0  0  0
    7.6000  -34.2700  -33.7680 N   0  0  0  0  0  0  0  0  0  0  0  0
    7.5620  -35.2710  -34.5940 C   0  0  0  0  0  0  0  0  0  0  0  0
    5.0540  -34.2820  -34.7620 N   0  0  0  0  0  0  0  0  0  0  0  0
   10.8940  -33.2170  -30.5000 C   0  0  0  0  0  0  0  0  0  0  0  0
    9.1400  -33.5720  -32.1940 C   0  0  0  0  0  0  0  0  0  0  0  0
    7.0220  -32.4450  -32.2190 C   0  0  0  0  0  0  0  0  0  0  0  0
   10.4870  -33.8810  -31.6620 C   0  0  0  0  0  0  0  0  0  0  0  0
    5.3980  -33.3520  -33.8370 C   0  0  0  0  0  0  0  0  0  0  0  0
    8.7010  -34.1310  -33.3320 C   0  0  0  0  0  0  0  0  0  0  0  0
    9.4040  -34.6480  -33.9100 O   0  0  0  0  0  0  0  0  0  0  0  0
  1 14  1  1
  1 12  1  0
  5  6  1  0
  6  2  2  0
  7 15  1  0
  7  1  1  0
  8  7  1  0
  9 14  1  0
 10  2  1  0
 11  5  2  0
 11 13  1  0
 12  3  2  0
 12  5  1  0
 13 10  2  0
 14  4  2  0
 15 11  1  0
 16 15  2  0
M  END
$$$$

     RDKit          3D

 34 41  0  0  0  0  0  0  0  0999 V2000
   12.1890  -34.7540  -31.7740 C   0  0  2  0  0  0  0  0  0  0  0  0
    6.4460  -31.7450  -30.3730 C   0  0  0  0  0  0  0  0  0  0  0  0
    6.5300  -35.3950  -35.9820 O   0  0  0  0  0  0  0  0  0  0  0  0
   11.5380  -35.9890  -34.6470 O   0  0  0  0  0  0  0  0  0  0  0  0
    5.6950  -33.0570  -33.2840 C   0  0  0  0  0  0  0  0  0  0  0  0
    8.8080  -36.2310  -35.7920 C   0  0  0  0  0  0  0  0  0  0  0  0
    5.9790  -31.9710  -31.4280 N   0  0  0  0  0  0  0  0  0  0  0  0
    9.0530  -35.3520  -33.5230 C   0  0  1  0  0  0  0  0  0  0  0  0
   10.7810  -32.4220  -29.4230 C   0  0  0  0  0  0  0  0  0  0  0  0
   11.1620  -35.6000  -32.2360 O   0  0  0  0  0  0  0  0  0  0  0  0
    2.1790  -31.9420  -32.5990 C   0  0  0  0  0  0  0  0  0  0  0  0
   11.6890  -33.3950  -31.5090 C   0  0  1  0  0  0  0  0  0  0  0  0
    3.2080  -32.5980  -33.2680 C   0  0  0  0  0  0  0  0  0  0  0  0
    5.9110  -33.5730  -34.4840 C   0  0  0  0  0  0  0  0  0  0  0  0
    6.6560  -32.6440  -32.2330 C   0  0  0  0  0  0  0  0  0  0  0  0
    7.7360  -34.7780  -34.0250 C   0  0  2  0  0  0  0  0  0  0  0  0
    7.9150  -33.3660  -32.3420 C   0  0  0  0  0  0  0  0  0  0  0  0
    9.3720  -36.4770  -34.3770 C   0  0  2  0  0  0  0  0  0  0  0  0
   10.2780  -33.6540  -31.4130 C   0  0  1  0  0  0  0  0  0  0  0  0
   11.9550  -33.1390  -30.0240 C   0  0  0  0  0  0  0  0  0  0  0  0
   10.1020  -34.7540  -32.5060 C   0  0  1  0  0  0  0  0  0  0  0  0
   10.6500  -36.6940  -34.2530 C   0  0  0  0  0  0  0  0  0  0  0  0
   10.7130  -37.8140  -33.8390 C   0  0  0  0  0  0  0  0  0  0  0  0
    7.5630  -35.4370  -35.4080 C   0  0  0  0  0  0  0  0  0  0  0  0
    3.5810  -31.4060  -30.8840 C   0  0  0  0  0  0  0  0  0  0  0  0
    4.4530  -32.5800  -32.6990 C   0  0  0  0  0  0  0  0  0  0  0  0
    7.3690  -33.8780  -33.8760 C   0  0  2  0  0  0  0  0  0  0  0  0
    9.6130  -33.0600  -30.2450 C   0  0  0  0  0  0  0  0  0  0  0  0
    4.6430  -31.8860  -31.6060 C   0  0  0  0  0  0  0  0  0  0  0  0
    2.3420  -31.3460  -31.3530 C   0  0  0  0  0  0  0  0  0  0  0  0
   12.9830  -33.4700  -29.3950 O   0  0  0  0  0  0  0  0  0  0  0  0
   13.4060  -34.7420  -32.7540 C   0  0  0  0  0  0  0  0  0  0  0  0
    8.9990  -33.8020  -32.1380 C   0  0  2  0  0  0  0  0  0  0  0  0
    7.8940  -31.2850  -30.3210 C   0  0  0  0  0  0  0  0  0  0  0  0
  1 32  1  6
  1 12  1  0
  2 34  1  0
  3 24  2  0
  4 22  2  0
  5 26  1  0
  5 15  2  0
  6 24  1  0
  6 18  1  0
  7  2  1  0
  8 21  1  0
 10  1  1  0
 11 30  1  0
 12 19  1  0
 12 20  1  1
 13 26  1  0
 13 11  2  0
 27 14  1  1
 14  5  1  0
 15  7  1  0
 16 27  1  0
 16  8  1  0
 17 15  1  0
 33 17  1  6
 18 22  1  6
  8 18  1  6
 19 28  1  1
 20  9  1  0
 20 31  2  0
 21 10  1  1
 21 33  1  0
 21 19  1  0
 22 23  1  0
 16 24  1  6
 26 29  2  0
 27 17  1  0
 28  9  1  0
 29  7  1  0
 29 25  1  0
 30 25  2  0
 33 19  1  0
M  END
$$$$

     RDKit          3D

 38 45  0  0  0  0  0  0  0  0999 V2000
    9.2890  -36.3710  -34.3650 C   0  0  0  0  0  0  0  0  0  0  0  0
    1.6280  -31.1390  -29.7630 C   0  0  0  0  0  0  0  0  0  0  0  0
    5.5210  -31.9960  -31.6260 C   0  0  0  0  0  0  0  0  0  0  0  0
    1.3050  -31.6380  -31.9840 C   0  0  0  0  0  0  0  0  0  0  0  0
   12.0390  -34.7180  -32.1060 C   0  0  0  0  0  0  0  0  0  0  0  0
    7.7910  -33.1300  -32.8160 N   0  0  0  0  0  0  0  0  0  0  0  0
    0.7280  -31.0460  -30.9280 C   0  0  0  0  0  0  0  0  0  0  0  0
   13.6760  -35.5700  -30.3140 C   0  0  0  0  0  0  0  0  0  0  0  0
   11.6610  -32.7790  -28.9220 C   0  0  0  0  0  0  0  0  0  0  0  0
    4.9490  -32.1510  -30.7800 N   0  0  0  0  0  0  0  0  0  0  0  0
   12.6500  -35.9660  -31.3050 C   0  0  1  0  0  0  0  0  0  0  0  0
    2.9320  -31.7220  -29.8820 C   0  0  0  0  0  0  0  0  0  0  0  0
   11.4210  -33.9230  -31.1010 C   0  0  0  0  0  0  0  0  0  0  0  0
    5.0200  -32.8220  -32.8760 C   0  0  1  0  0  0  0  0  0  0  0  0
    2.6860  -32.0060  -31.9880 C   0  0  0  0  0  0  0  0  0  0  0  0
    7.5320  -34.8690  -34.2460 C   0  0  0  0  0  0  0  0  0  0  0  0
    5.7810  -34.9460  -35.5440 N   0  0  0  0  0  0  0  0  0  0  0  0
    8.0440  -36.0080  -34.7670 C   0  0  0  0  0  0  0  0  0  0  0  0
    3.7080  -32.1100  -31.2500 C   0  0  1  0  0  0  0  0  0  0  0  0
   11.2410  -36.2960  -30.2970 C   0  0  0  0  0  0  0  0  0  0  0  0
    8.1090  -34.1200  -33.2990 C   0  0  0  0  0  0  0  0  0  0  0  0
    4.4590  -33.7150  -34.8670 N   0  0  0  0  0  0  0  0  0  0  0  0
   10.2630  -33.1600  -31.1270 C   0  0  0  0  0  0  0  0  0  0  0  0
    4.7320  -34.4200  -35.7050 C   0  0  0  0  0  0  0  0  0  0  0  0
   11.3000  -38.0100  -33.2790 C   0  0  0  0  0  0  0  0  0  0  0  0
   12.1670  -33.6890  -29.9180 C   0  0  0  0  0  0  0  0  0  0  0  0
    9.3050  -34.5070  -32.9250 C   0  0  0  0  0  0  0  0  0  0  0  0
   13.3190  -34.2810  -29.6360 C   0  0  0  0  0  0  0  0  0  0  0  0
    3.8820  -32.5870  -32.6490 C   0  0  2  0  0  0  0  0  0  0  0  0
   14.0830  -33.8910  -28.7520 O   0  0  0  0  0  0  0  0  0  0  0  0
    9.3690  -33.3440  -32.2240 C   0  0  0  0  0  0  0  0  0  0  0  0
   11.1360  -36.5460  -33.0860 O   0  0  0  0  0  0  0  0  0  0  0  0
    9.9570  -35.7360  -33.3420 C   0  0  0  0  0  0  0  0  0  0  0  0
    9.8630  -32.2680  -30.2100 C   0  0  0  0  0  0  0  0  0  0  0  0
    8.4480  -32.7270  -32.2370 C   0  0  0  0  0  0  0  0  0  0  0  0
    5.3650  -33.5790  -34.1160 C   0  0  0  0  0  0  0  0  0  0  0  0
   10.4830  -32.2140  -29.0690 C   0  0  0  0  0  0  0  0  0  0  0  0
    6.2990  -34.4030  -34.5410 C   0  0  0  0  0  0  0  0  0  0  0  0
  1 33  1  0
  3 10  1  0
  4  7  1  0
  5 11  1  0
  5 13  1  0
  6 35  2  0
  7  2  2  0
  8 28  1  0
 11  8  1  0
 11 20  1  1
 12  2  1  0
 13 26  2  0
 14 36  1  6
 14 29  1  0
 14  3  1  0
 15  4  2  0
 15 19  1  0
 16 21  2  0
 17 38  1  0
 18  1  2  0
 18 16  1  0
 19 10  1  0
 19 12  1  1
 21 27  1  0
 21  6  1  0
 22 36  2  0
 23 13  1  0
 23 34  2  0
 24 17  2  0
 24 22  1  0
 25 32  1  0
 26 28  1  0
 26  9  1  0
 27 31  2  0
 28 30  2  0
 29 15  1  6
 29 19  1  0
 31 23  1  0
 33 32  1  0
 33 27  1  0
 34 37  1  0
 35 31  1  0
 37  9  2  0
 38 16  1  0
 38 36  1  0
M  END
$$$$

     RDKit          3D

 19 21  0  0  0  0  0  0  0  0999 V2000
   12.4680  -33.2790  -31.8990 N   0  0  0  0  0  0  0  0  0  0  0  0
    8.1430  -35.0190  -33.8480 C   0  0  0  0  0  0  0  0  0  0  0  0
    4.7450  -34.3400  -36.1570 C   0  0  0  0  0  0  0  0  0  0  0  0
    9.4370  -35.4140  -34.0450 C   0  0  0  0  0  0  0  0  0  0  0  0
    5.5510  -33.6780  -34.1510 C   0  0  0  0  0  0  0  0  0  0  0  0
    7.7000  -34.1580  -33.4500 C   0  0  0  0  0  0  0  0  0  0  0  0
    5.5770  -34.7150  -34.9960 C   0  0  0  0  0  0  0  0  0  0  0  0
    8.6640  -33.7230  -32.6830 C   0  0  0  0  0  0  0  0  0  0  0  0
   12.0280  -33.5460  -32.0750 C   0  0  0  0  0  0  0  0  0  0  0  0
    9.8660  -34.0250  -32.4310 C   0  0  2  0  0  0  0  0  0  0  0  0
   11.2710  -33.5690  -30.1400 C   0  0  0  0  0  0  0  0  0  0  0  0
    4.2830  -33.0810  -34.0210 C   0  0  0  0  0  0  0  0  0  0  0  0
   10.3380  -34.8600  -33.1600 C   0  0  0  0  0  0  0  0  0  0  0  0
    3.2970  -34.4980  -35.7900 C   0  0  0  0  0  0  0  0  0  0  0  0
   10.5360  -33.8920  -31.0670 C   0  0  2  0  0  0  0  0  0  0  0  0
    1.7830  -33.1170  -34.2480 O   0  0  0  0  0  0  0  0  0  0  0  0
    6.6480  -33.3700  -33.2430 C   0  0  0  0  0  0  0  0  0  0  0  0
    3.1010  -33.3140  -34.9220 C   0  0  1  0  0  0  0  0  0  0  0  0
   12.6140  -33.5980  -30.3090 C   0  0  0  0  0  0  0  0  0  0  0  0
  1 19  1  0
  2  6  1  0
  3 14  1  0
  3  7  1  0
  4  2  1  0
  4 13  1  0
  5 12  2  0
  5 17  1  0
  6 17  1  0
  6  8  2  0
  7  5  1  0
  8 10  1  0
  9  1  1  0
 10 13  1  1
 10 15  1  0
 14 18  1  0
 15  9  1  6
 15 11  1  0
 18 16  1  1
 18 12  1  0
 19 11  1  0
M  END
$$$$

     RDKit          3D

 15 16  0  0  0  0  0  0  0  0999 V2000
    7.1160  -34.2230  -34.1230 N   0  0  0  0  0  0  0  0  0  0  0  0
    9.2710  -34.5980  -33.3620 O   0  0  0  0  0  0  0  0  0  0  0  0
    5.8790  -34.5180  -34.9320 C   0  0  0  0  0  0  0  0  0  0  0  0
    6.1550  -32.8350  -33.0640 C   0  0  0  0  0  0  0  0  0  0  0  0
    9.2000  -33.0840  -31.7580 C   0  0  0  0  0  0  0  0  0  0  0  0
   11.1600  -34.2670  -32.4000 C   0  0  0  0  0  0  0  0  0  0  0  0
    7.2760  -33.5380  -33.2590 C   0  0  0  0  0  0  0  0  0  0  0  0
    5.7760  -35.6160  -35.9690 C   0  0  0  0  0  0  0  0  0  0  0  0
   10.4140  -35.0100  -33.2960 C   0  0  1  0  0  0  0  0  0  0  0  0
   10.6000  -33.4020  -31.7100 C   0  0  0  0  0  0  0  0  0  0  0  0
    4.9330  -33.8600  -34.5380 N   0  0  0  0  0  0  0  0  0  0  0  0
    4.9720  -32.9100  -33.4990 C   0  0  0  0  0  0  0  0  0  0  0  0
   10.7580  -36.2020  -33.9840 C   0  0  0  0  0  0  0  0  0  0  0  0
    8.5810  -32.0860  -30.7350 C   0  0  0  0  0  0  0  0  0  0  0  0
    8.5360  -33.7440  -32.7970 C   0  0  0  0  0  0  0  0  0  0  0  0
  1  7  2  0
  2  9  1  0
  2 15  1  0
  3 11  2  0
  3  1  1  0
  5 10  1  0
  5 14  1  0
  6 10  2  0
  7  4  1  0
  7 15  1  0
  8  3  1  0
  9 13  1  1
  9  6  1  0
 11 12  1  0
 12  4  2  0
 15  5  2  0
M  END
$$$$

     RDKit          3D

 34 39  0  0  0  0  0  0  0  0999 V2000
   10.6930  -34.2600  -31.5980 C   0  0  2  0  0  0  0  0  0  0  0  0
    9.5390  -34.3740  -32.7860 C   0  0  0  0  0  0  0  0  0  0  0  0
    8.2940  -32.1750  -31.0270 C   0  0  0  0  0  0  0  0  0  0  0  0
    5.6970  -34.1070  -34.9840 C   0  0  2  0  0  0  0  0  0  0  0  0
   12.9370  -33.7770  -31.8910 O   0  0  0  0  0  0  0  0  0  0  0  0
    5.5860  -33.3880  -33.4930 C   0  0  0  0  0  0  0  0  0  0  0  0
   11.9990  -34.2460  -31.8640 C   0  0  2  0  0  0  0  0  0  0  0  0
   11.3940  -33.6350  -32.9500 C   0  0  1  0  0  0  0  0  0  0  0  0
    5.0130  -34.0820  -37.9870 O   0  0  0  0  0  0  0  0  0  0  0  0
    3.8960  -35.8400  -37.3200 O   0  0  0  0  0  0  0  0  0  0  0  0
    7.5760  -34.8620  -34.1050 O   0  0  0  0  0  0  0  0  0  0  0  0
    3.3580  -34.2740  -35.0200 N   0  0  0  0  0  0  0  0  0  0  0  0
   10.8440  -35.8370  -33.4260 S   0  0  2  0  0  0  0  0  0  0  0  0
   11.3380  -32.2270  -28.5930 C   0  0  0  0  0  0  0  0  0  0  0  0
    4.4410  -34.8370  -37.0780 C   0  0  0  0  0  0  0  0  0  0  0  0
   11.0510  -34.6120  -33.7780 C   0  0  0  0  0  0  0  0  0  0  0  0
   11.4390  -31.0620  -29.2160 O   0  0  0  0  0  0  0  0  0  0  0  0
    7.0160  -35.3620  -36.5160 O   0  0  0  0  0  0  0  0  0  0  0  0
    8.3250  -35.2630  -33.7940 C   0  0  0  0  0  0  0  0  0  0  0  0
    8.0970  -32.4220  -32.4160 C   0  0  0  0  0  0  0  0  0  0  0  0
   11.0980  -36.3140  -33.7870 C   0  0  0  0  0  0  0  0  0  0  0  0
   11.2530  -32.3560  -27.4040 O   0  0  0  0  0  0  0  0  0  0  0  0
    9.8110  -35.6270  -33.5520 C   0  0  1  0  0  0  0  0  0  0  0  0
    3.0580  -32.9740  -34.3410 C   0  0  0  0  0  0  0  0  0  0  0  0
   10.0600  -37.2100  -34.2760 C   0  0  1  0  0  0  0  0  0  0  0  0
    4.4980  -34.3540  -35.6900 C   0  0  2  0  0  0  0  0  0  0  0  0
    8.9590  -33.2380  -32.8490 C   0  0  1  0  0  0  0  0  0  0  0  0
   11.3680  -33.3280  -29.7000 N   0  0  0  0  0  0  0  0  0  0  0  0
   12.4510  -33.3690  -30.4830 C   0  0  0  0  0  0  0  0  0  0  0  0
    9.6580  -33.8060  -31.7840 C   0  0  2  0  0  0  0  0  0  0  0  0
    8.6140  -36.2900  -34.8880 C   0  0  0  0  0  0  0  0  0  0  0  0
    8.9430  -36.3160  -34.6600 C   0  0  1  0  0  0  0  0  0  0  0  0
    4.2770  -32.5040  -33.6250 C   0  0  0  0  0  0  0  0  0  0  0  0
    6.8550  -34.8480  -35.2320 C   0  0  0  0  0  0  0  0  0  0  0  0
 30  2  1  6
  4  6  1  0
  7  5  1  1
  5 29  1  0
  1  7  1  1
  8  7  1  0
  8  1  1  0
  9 15  2  0
 10 15  1  0
 11 19  1  0
 12 24  1  0
 14 22  1  0
 26 15  1  1
 13 16  1  6
  8 16  1  6
 17 14  2  0
 18 34  2  0
 20  3  1  0
 21 13  1  0
 23 13  1  0
 23  2  1  1
 24 33  1  0
 25 21  1  6
 25 23  1  0
 26 12  1  0
 26  4  1  0
 27  2  1  0
 27 20  1  1
 27 30  1  0
 28 14  1  0
 29 28  1  0
 30  1  1  0
 32 31  1  6
 32 25  1  0
 32 19  1  0
 32 23  1  0
 33  6  1  0
  4 34  1  1
 34 11  1  0
M  END
$$$$

     RDKit          3D

 27 29  0  0  0  0  0  0  0  0999 V2000
    7.3590  -34.9030  -34.2810 C   0  0  0  0  0  0  0  0  0  0  0  0
    5.4670  -35.2190  -36.6310 O   0  0  0  0  0  0  0  0  0  0  0  0
   11.5410  -34.3910  -32.2160 C   0  0  1  0  0  0  0  0  0  0  0  0
    6.4960  -32.8030  -32.9060 C   0  0  0  0  0  0  0  0  0  0  0  0
   11.5300  -33.7270  -31.0780 C   0  0  1  0  0  0  0  0  0  0  0  0
    8.4150  -34.4300  -33.9290 C   0  0  0  0  0  0  0  0  0  0  0  0
    6.0150  -31.8490  -32.1780 C   0  0  0  0  0  0  0  0  0  0  0  0
    6.0740  -34.2750  -34.3640 C   0  0  2  0  0  0  0  0  0  0  0  0
    5.2400  -34.6020  -35.7100 C   0  0  0  0  0  0  0  0  0  0  0  0
   13.1350  -33.8840  -32.9440 S   0  0  0  0  0  0  0  0  0  0  0  0
   10.9420  -35.4020  -32.4090 F   0  0  0  0  0  0  0  0  0  0  0  0
   11.3040  -34.1820  -30.3870 C   0  0  2  0  0  0  0  0  0  0  0  0
   11.6990  -33.3160  -28.9610 C   0  0  0  0  0  0  0  0  0  0  0  0
    5.1910  -33.3100  -33.8260 C   0  0  1  0  0  0  0  0  0  0  0  0
   10.3780  -33.3810  -29.8520 C   0  0  0  0  0  0  0  0  0  0  0  0
    2.6740  -34.3560  -35.9910 C   0  0  0  0  0  0  0  0  0  0  0  0
    3.9200  -34.2020  -35.2420 N   0  0  0  0  0  0  0  0  0  0  0  0
    7.5360  -33.0660  -32.5840 C   0  0  0  0  0  0  0  0  0  0  0  0
    8.7060  -32.6330  -32.4010 C   0  0  0  0  0  0  0  0  0  0  0  0
   11.6030  -33.2480  -32.8800 C   0  0  0  0  0  0  0  0  0  0  0  0
    9.1620  -33.9850  -33.2220 C   0  0  0  0  0  0  0  0  0  0  0  0
    9.6960  -33.3050  -32.4990 C   0  0  1  0  0  0  0  0  0  0  0  0
    3.7990  -33.6630  -33.8870 C   0  0  0  0  0  0  0  0  0  0  0  0
   10.8130  -33.7770  -29.6560 C   0  0  1  0  0  0  0  0  0  0  0  0
   10.8450  -32.8840  -32.7820 C   0  0  0  0  0  0  0  0  0  0  0  0
   12.0020  -34.3480  -30.9460 C   0  0  0  0  0  0  0  0  0  0  0  0
   11.7500  -33.9750  -32.8680 C   0  0  2  0  0  0  0  0  0  0  0  0
  1  6  1  0
  2  9  2  0
  3 11  1  6
  4 18  1  0
  4  7  2  0
  5  3  1  0
  5 26  1  1
  5 12  1  0
  6 21  3  0
  8  1  1  6
  8 14  1  0
  9 17  1  0
  9  8  1  0
 12 24  1  0
 14 23  1  1
 14  4  1  0
 24 15  1  6
 16 17  1  0
 17 23  1  0
 18 19  1  0
 20 27  1  0
 20 25  2  3
 22 21  1  6
 22 25  1  0
 22 19  1  0
 24 13  1  0
 12 26  1  1
 27 10  1  1
 27  3  1  0
M  END
$$$$

     RDKit          3D

 36 44  0  0  0  0  0  0  0  0999 V2000
    2.8720  -34.7760  -36.3010 C   0  0  0  0  0  0  0  0  0  0  0  0
    7.1550  -35.1240  -35.1840 C   0  0  1  0  0  0  0  0  0  0  0  0
    9.5160  -31.6010  -29.4170 O   0  0  0  0  0  0  0  0  0  0  0  0
    7.0650  -32.2060  -30.6950 C   0  0  0  0  0  0  0  0  0  0  0  0
   10.0100  -33.8020  -32.1720 C   0  0  2  0  0  0  0  0  0  0  0  0
    5.5640  -34.1340  -33.6880 C   0  0  0  0  0  0  0  0  0  0  0  0
   10.8020  -33.0620  -29.7290 C   0  0  2  0  0  0  0  0  0  0  0  0
    8.7170  -32.0630  -31.8290 C   0  0  2  0  0  0  0  0  0  0  0  0
    5.8300  -35.2910  -37.0010 C   0  0  0  0  0  0  0  0  0  0  0  0
   11.7920  -32.1830  -28.3890 S   0  0  0  0  0  0  0  0  0  0  0  0
   11.7990  -33.2120  -30.6080 C   0  0  2  0  0  0  0  0  0  0  0  0
    8.8230  -33.3410  -32.2470 C   0  0  2  0  0  0  0  0  0  0  0  0
    9.7280  -35.0670  -35.0030 C   0  0  0  0  0  0  0  0  0  0  0  0
    6.9530  -35.2140  -37.3870 N   0  0  0  0  0  0  0  0  0  0  0  0
    4.3430  -34.1240  -34.6490 C   0  0  2  0  0  0  0  0  0  0  0  0
    3.3610  -33.0110  -33.9730 C   0  0  0  0  0  0  0  0  0  0  0  0
    4.1360  -32.1740  -33.1730 C   0  0  0  0  0  0  0  0  0  0  0  0
   13.1130  -33.3730  -28.4950 C   0  0  0  0  0  0  0  0  0  0  0  0
   11.4860  -33.5940  -31.9680 C   0  0  1  0  0  0  0  0  0  0  0  0
    9.0820  -35.6360  -35.7670 C   0  0  2  0  0  0  0  0  0  0  0  0
    9.0600  -33.5460  -33.4340 C   0  0  1  0  0  0  0  0  0  0  0  0
    7.7340  -35.6020  -36.0510 C   0  0  1  0  0  0  0  0  0  0  0  0
   13.8990  -33.5360  -27.6110 O   0  0  0  0  0  0  0  0  0  0  0  0
    9.3570  -32.6960  -31.4730 C   0  0  1  0  0  0  0  0  0  0  0  0
    5.7350  -35.9570  -35.6650 C   0  0  0  0  0  0  0  0  0  0  0  0
    7.8140  -35.0430  -34.3990 C   0  0  0  0  0  0  0  0  0  0  0  0
    3.4980  -35.1810  -35.1420 O   0  0  0  0  0  0  0  0  0  0  0  0
    7.1540  -31.3770  -32.0190 C   0  0  1  0  0  0  0  0  0  0  0  0
    4.6920  -32.5400  -31.8430 C   0  0  0  0  0  0  0  0  0  0  0  0
    7.7770  -32.7120  -33.3750 C   0  0  0  0  0  0  0  0  0  0  0  0
    9.9480  -32.2390  -30.1840 C   0  0  0  0  0  0  0  0  0  0  0  0
   12.6950  -34.3000  -32.7000 O   0  0  0  0  0  0  0  0  0  0  0  0
    9.8480  -34.3140  -34.0270 C   0  0  0  0  0  0  0  0  0  0  0  0
    6.2480  -32.7320  -31.7600 C   0  0  2  0  0  0  0  0  0  0  0  0
    6.4800  -33.8930  -32.3510 O   0  0  0  0  0  0  0  0  0  0  0  0
   13.0060  -33.9850  -30.0380 C   0  0  0  0  0  0  0  0  0  0  0  0
  1 27  1  0
  2 25  1  1
  2 26  1  0
  5 19  1  6
  5 24  1  0
  6 35  1  0
  7 10  1  1
  8 24  1  0
  9 25  1  0
 11 36  1  1
 11  7  1  0
 12  5  1  0
 12 24  1  0
 13 33  2  3
 14  9  1  0
 22 14  1  6
 15 16  1  0
 15  6  1  0
 16 17  1  0
 17 29  1  0
 18 10  1  0
 18 23  2  0
 19 11  1  0
 20 13  1  0
 20 26  1  1
 21 30  1  0
 12 21  1  6
 21  5  1  0
 22 20  1  0
 22  2  1  0
 24 31  1  1
 15 27  1  1
 28  8  1  0
 28 34  1  0
 28  4  1  1
 34 29  1  1
  8 30  1  6
 31  7  1  0
 31  3  2  0
 19 32  1  1
 21 33  1  1
 34  4  1  0
 35 34  1  0
 36 18  1  0
M  END
$$$$

     RDKit          3D

 25 26  0  0  0  0  0  0  0  0999 V2000
    6.5120  -35.7260  -35.8530 C   0  0  0  0  0  0  0  0  0  0  0  0
    5.5860  -34.0130  -34.7990 C   0  0  0  0  0  0  0  0  0  0  0  0
   10.0360  -34.8680  -33.2010 C   0  0  2  0  0  0  0  0  0  0  0  0
    6.9550  -34.4100  -33.9240 C   0  0  0  0  0  0  0  0  0  0  0  0
   11.9810  -32.5930  -28.7550 C   0  0  0  0  0  0  0  0  0  0  0  0
   11.2480  -34.0420  -32.9050 C   0  0  0  0  0  0  0  0  0  0  0  0
   11.0630  -31.6120  -28.8300 C   0  0  0  0  0  0  0  0  0  0  0  0
    6.9120  -31.6270  -31.0650 O   0  0  0  0  0  0  0  0  0  0  0  0
   10.8240  -36.2290  -33.1810 F   0  0  0  0  0  0  0  0  0  0  0  0
    6.4100  -34.5590  -34.2740 C   0  0  0  0  0  0  0  0  0  0  0  0
    9.9520  -32.0810  -29.7870 C   0  0  0  0  0  0  0  0  0  0  0  0
    8.8280  -31.4940  -30.0350 N   0  0  0  0  0  0  0  0  0  0  0  0
   10.1840  -33.2500  -30.3080 C   0  0  0  0  0  0  0  0  0  0  0  0
    8.1670  -32.1300  -30.9830 C   0  0  0  0  0  0  0  0  0  0  0  0
    6.2830  -32.6010  -32.8510 C   0  0  0  0  0  0  0  0  0  0  0  0
    7.4120  -33.4230  -33.0170 C   0  0  1  0  0  0  0  0  0  0  0  0
    8.3210  -32.9250  -31.6310 C   0  0  2  0  0  0  0  0  0  0  0  0
    4.9200  -35.1270  -37.3190 C   0  0  0  0  0  0  0  0  0  0  0  0
   11.7940  -34.0350  -29.6990 S   0  0  0  0  0  0  0  0  0  0  0  0
    8.9760  -35.3350  -34.5900 F   0  0  0  0  0  0  0  0  0  0  0  0
    9.0880  -34.8710  -33.6420 C   0  0  0  0  0  0  0  0  0  0  0  0
    9.8980  -34.8660  -31.4140 C   0  0  0  0  0  0  0  0  0  0  0  0
    5.1160  -35.3690  -36.1630 C   0  0  2  0  0  0  0  0  0  0  0  0
    9.3050  -33.7920  -31.2740 C   0  0  1  0  0  0  0  0  0  0  0  0
    5.1280  -34.3780  -35.0670 C   0  0  0  0  0  0  0  0  0  0  0  0
  2 10  2  3
  3  9  1  0
  3  6  1  6
  3 22  1  0
  4 16  1  0
  7  5  2  0
  8 14  2  0
 10  4  1  0
 11  7  1  0
 12 11  1  0
 13 11  2  0
 13 19  1  0
 14 12  1  0
 16 15  1  1
 17 16  1  0
 17 24  1  0
 17 14  1  1
 23 18  1  6
 19  5  1  0
 20 21  1  0
 21  3  1  0
 23  1  1  0
 23 25  1  0
 24 22  1  6
 24 13  1  0
 25  2  1  0
M  END
$$$$

     RDKit          3D

 24 29  0  0  0  0  0  0  0  0999 V2000
    8.7980  -35.5160  -34.0520 C   0  0  0  0  0  0  0  0  0  0  0  0
    6.1700  -31.9330  -31.0370 C   0  0  0  0  0  0  0  0  0  0  0  0
    3.2590  -32.9450  -34.0280 C   0  0  0  0  0  0  0  0  0  0  0  0
   10.7930  -33.0810  -29.8450 C   0  0  0  0  0  0  0  0  0  0  0  0
    4.8880  -31.8120  -31.0960 C   0  0  0  0  0  0  0  0  0  0  0  0
    4.3630  -33.3830  -34.5030 C   0  0  0  0  0  0  0  0  0  0  0  0
   11.2440  -34.1800  -31.6180 C   0  0  0  0  0  0  0  0  0  0  0  0
    7.6290  -33.2940  -32.5070 C   0  0  1  0  0  0  0  0  0  0  0  0
    8.8540  -34.2850  -32.6720 C   0  0  0  0  0  0  0  0  0  0  0  0
    5.6230  -32.7600  -32.8770 C   0  0  0  0  0  0  0  0  0  0  0  0
    7.7910  -34.9260  -34.8840 C   0  0  2  0  0  0  0  0  0  0  0  0
    6.9530  -34.0070  -33.8310 C   0  0  2  0  0  0  0  0  0  0  0  0
    6.6110  -32.6690  -32.0420 N   0  0  0  0  0  0  0  0  0  0  0  0
   11.5500  -33.9310  -30.3510 C   0  0  0  0  0  0  0  0  0  0  0  0
    5.7040  -33.3670  -33.8530 C   0  0  0  0  0  0  0  0  0  0  0  0
    9.9820  -33.9450  -31.8010 C   0  0  0  0  0  0  0  0  0  0  0  0
    4.3920  -32.3100  -32.2240 C   0  0  0  0  0  0  0  0  0  0  0  0
    9.2270  -34.7080  -33.8990 O   0  0  0  0  0  0  0  0  0  0  0  0
   10.9960  -32.3530  -28.6570 F   0  0  0  0  0  0  0  0  0  0  0  0
    6.4440  -34.8470  -35.0730 O   0  0  0  0  0  0  0  0  0  0  0  0
    8.7030  -34.9240  -34.4900 C   0  0  1  0  0  0  0  0  0  0  0  0
    9.5830  -32.9370  -30.7500 C   0  0  0  0  0  0  0  0  0  0  0  0
    3.1810  -32.3720  -32.7490 N   0  0  0  0  0  0  0  0  0  0  0  0
    9.6450  -35.1990  -33.9540 O   0  0  0  0  0  0  0  0  0  0  0  0
  1 24  1  0
  3 23  2  0
  4 19  1  0
  5  2  1  0
  6  3  1  0
  6 15  2  0
  7 14  1  0
  8  9  1  1
  8 13  1  0
 10 17  2  0
 10 13  1  0
 11 20  1  1
 11 21  1  0
 11 12  1  0
 12 20  1  1
 12  8  1  0
 13  2  1  0
 14  4  1  0
 15 12  1  0
 15 10  1  0
 16  9  1  0
 16  7  1  0
 16 22  1  0
 17  5  1  0
 21  1  1  1
 21 18  1  0
 22  4  1  0
 23 17  1  0
 24 18  1  0
M  END
$$$$

     RDKit          3D

 20 23  0  0  0  0  0  0  0  0999 V2000
    9.6550  -35.4540  -32.9150 C   0  0  2  0  0  0  0  0  0  0  0  0
    7.2580  -33.4040  -33.0250 C   0  0  0  0  0  0  0  0  0  0  0  0
    4.9980  -34.4730  -35.7740 C   0  0  0  0  0  0  0  0  0  0  0  0
   10.5430  -35.2660  -32.7280 C   0  0  0  0  0  0  0  0  0  0  0  0
    9.4210  -36.2920  -33.9310 C   0  0  1  0  0  0  0  0  0  0  0  0
    6.9790  -32.7600  -32.6350 C   0  0  0  0  0  0  0  0  0  0  0  0
    7.9740  -34.9790  -34.0100 C   0  0  0  0  0  0  0  0  0  0  0  0
   10.3600  -34.2790  -31.8450 C   0  0  0  0  0  0  0  0  0  0  0  0
    8.6610  -34.0570  -32.7970 C   0  0  0  0  0  0  0  0  0  0  0  0
    8.8430  -35.1960  -33.6470 C   0  0  2  0  0  0  0  0  0  0  0  0
    7.3360  -35.4860  -36.3210 C   0  0  0  0  0  0  0  0  0  0  0  0
    5.7110  -34.7600  -34.7990 C   0  0  0  0  0  0  0  0  0  0  0  0
    9.4000  -33.6340  -31.8990 C   0  0  0  0  0  0  0  0  0  0  0  0
    5.8230  -31.9980  -32.5880 F   0  0  0  0  0  0  0  0  0  0  0  0
    5.1180  -34.9500  -36.9430 C   0  0  0  0  0  0  0  0  0  0  0  0
    6.3700  -35.3420  -37.2790 C   0  0  0  0  0  0  0  0  0  0  0  0
    7.6320  -31.9590  -31.5010 C   0  0  0  0  0  0  0  0  0  0  0  0
    7.0310  -34.9900  -34.8990 C   0  0  0  0  0  0  0  0  0  0  0  0
    8.9300  -32.3280  -31.1720 C   0  0  0  0  0  0  0  0  0  0  0  0
    9.5220  -36.7990  -34.8750 C   0  0  0  0  0  0  0  0  0  0  0  0
  1  4  1  6
  2  9  2  0
  2  6  1  0
  3 12  2  0
  4  8  1  0
  5 20  1  6
  5 10  1  0
  5  1  1  0
  6 14  1  0
  6 17  2  0
  9 13  1  0
 10  7  1  1
 10  1  1  0
 10  9  1  0
 11 18  2  0
 13  8  1  0
 13 19  2  0
 15  3  1  0
 16 15  2  0
 16 11  1  0
 17 19  1  0
 18 12  1  0
 18  7  1  0
M  END
$$$$

     RDKit          3D

 25 26  0  0  0  0  0  0  0  0999 V2000
   11.6620  -33.4520  -30.9170 C   0  0  0  0  0  0  0  0  0  0  0  0
   13.2210  -32.5380  -26.9420 O   0  0  0  0  0  0  0  0  0  0  0  0
   10.3900  -32.7460  -29.5710 O   0  0  0  0  0  0  0  0  0  0  0  0
   11.5360  -33.1950  -29.6590 C   0  0  0  0  0  0  0  0  0  0  0  0
    7.3240  -35.3180  -34.6620 C   0  0  0  0  0  0  0  0  0  0  0  0
    3.4890  -33.2540  -34.2420 C   0  0  0  0  0  0  0  0  0  0  0  0
    2.5630  -33.7310  -35.3250 C   0  0  0  0  0  0  0  0  0  0  0  0
   12.4050  -32.5130  -27.6200 C   0  0  0  0  0  0  0  0  0  0  0  0
    7.1890  -31.8710  -31.5490 C   0  0  0  0  0  0  0  0  0  0  0  0
    8.6750  -35.4580  -34.4630 C   0  0  0  0  0  0  0  0  0  0  0  0
   11.1690  -33.6780  -31.7040 C   0  0  0  0  0  0  0  0  0  0  0  0
    2.9840  -34.4950  -36.1940 O   0  0  0  0  0  0  0  0  0  0  0  0
    5.6980  -33.8860  -34.9380 O   0  0  0  0  0  0  0  0  0  0  0  0
    4.7850  -32.8400  -34.9450 C   0  0  0  0  0  0  0  0  0  0  0  0
    1.3620  -33.2290  -35.2630 O   0  0  0  0  0  0  0  0  0  0  0  0
   11.2830  -31.9630  -27.3540 O   0  0  0  0  0  0  0  0  0  0  0  0
    6.6890  -34.0590  -34.0100 C   0  0  0  0  0  0  0  0  0  0  0  0
    8.3910  -32.0040  -30.9370 C   0  0  0  0  0  0  0  0  0  0  0  0
   10.2860  -33.3550  -31.8380 C   0  0  0  0  0  0  0  0  0  0  0  0
    8.6580  -33.7160  -32.9170 C   0  0  0  0  0  0  0  0  0  0  0  0
    6.7980  -32.4990  -32.4570 C   0  0  0  0  0  0  0  0  0  0  0  0
    7.4030  -33.3820  -33.2270 C   0  0  0  0  0  0  0  0  0  0  0  0
    9.3580  -34.6990  -33.4940 C   0  0  0  0  0  0  0  0  0  0  0  0
   12.6870  -32.9740  -28.6510 C   0  0  0  0  0  0  0  0  0  0  0  0
    9.1360  -32.9100  -32.0100 C   0  0  0  0  0  0  0  0  0  0  0  0
  1  4  1  0
  4  3  2  0
  4 24  1  0
  5 10  2  0
  5 17  1  0
  7 15  1  0
  7  6  1  0
  8 16  2  0
  8  2  1  0
  9 18  1  0
 10 23  1  0
 11  1  1  0
 12  7  2  0
 13 17  1  0
 14 13  1  0
 14  6  1  0
 17 22  2  0
 19 11  2  0
 20 25  1  0
 21  9  2  0
 22 20  1  0
 22 21  1  0
 23 20  2  0
 24  8  1  0
 25 19  2  0
 25 18  1  0
M  END
$$$$

     RDKit          3D

 24 29  0  0  0  0  0  0  0  0999 V2000
    3.9770  -33.2710  -34.3260 C   0  0  0  0  0  0  0  0  0  0  0  0
    8.4380  -32.9050  -32.2170 C   0  0  0  0  0  0  0  0  0  0  0  0
   10.5310  -33.4800  -31.1190 C   0  0  2  0  0  0  0  0  0  0  0  0
    3.8380  -34.2100  -35.2020 C   0  0  2  0  0  0  0  0  0  0  0  0
    4.7710  -34.8240  -35.9980 C   0  0  0  0  0  0  0  0  0  0  0  0
   12.3620  -33.8400  -33.8540 O   0  0  0  0  0  0  0  0  0  0  0  0
    4.7870  -32.6350  -33.4030 C   0  0  0  0  0  0  0  0  0  0  0  0
    8.2510  -34.8620  -33.8050 C   0  0  2  0  0  0  0  0  0  0  0  0
    9.7720  -36.0010  -34.0320 C   0  0  0  0  0  0  0  0  0  0  0  0
   10.6150  -35.4200  -32.8940 C   0  0  0  0  0  0  0  0  0  0  0  0
    6.1910  -33.2210  -33.2890 C   0  0  1  0  0  0  0  0  0  0  0  0
    9.3750  -32.3420  -31.4400 C   0  0  0  0  0  0  0  0  0  0  0  0
   11.6970  -33.1240  -31.7490 C   0  0  2  0  0  0  0  0  0  0  0  0
   10.1090  -34.2750  -30.5470 C   0  0  0  0  0  0  0  0  0  0  0  0
    6.7330  -31.5340  -31.7630 O   0  0  0  0  0  0  0  0  0  0  0  0
    6.6770  -34.2500  -34.1880 C   0  0  0  0  0  0  0  0  0  0  0  0
   10.3290  -34.2220  -32.6400 C   0  0  1  0  0  0  0  0  0  0  0  0
   11.5340  -33.7960  -33.0340 C   0  0  0  0  0  0  0  0  0  0  0  0
    8.5530  -35.9120  -34.2270 C   0  0  0  0  0  0  0  0  0  0  0  0
   11.4320  -34.1010  -30.7310 C   0  0  2  0  0  0  0  0  0  0  0  0
    2.5930  -34.1540  -35.5760 O   0  0  0  0  0  0  0  0  0  0  0  0
    6.1560  -34.8980  -35.1270 C   0  0  0  0  0  0  0  0  0  0  0  0
    7.1590  -32.4130  -32.3160 C   0  0  0  0  0  0  0  0  0  0  0  0
    8.8710  -34.1110  -32.9100 C   0  0  0  0  0  0  0  0  0  0  0  0
  1  7  1  0
  2 12  1  0
  3 12  1  1
  3 20  1  0
  3 14  1  0
  4 21  1  6
  4  1  1  0
  5  4  1  0
  5 22  1  0
  6 18  2  0
  8 19  1  1
  8 24  1  0
  9 10  1  0
 11  7  1  6
 11 23  1  0
 13 18  1  6
 13  3  1  0
 13 20  1  0
 16  8  1  0
 16 11  1  0
 17 10  1  6
 18 17  1  0
 19  9  1  0
 20 14  1  6
 22 16  2  0
 23  2  1  0
 23 15  2  0
 24 17  1  0
 24  2  2  0
M  END
$$$$

     RDKit          3D

 20 23  0  0  0  0  0  0  0  0999 V2000
    9.8840  -33.4940  -31.3700 N   0  0  0  0  0  0  0  0  0  0  0  0
    8.5310  -35.9390  -36.6270 C   0  0  0  0  0  0  0  0  0  0  0  0
    8.9470  -35.0270  -33.7420 C   0  0  1  0  0  0  0  0  0  0  0  0
    6.1010  -35.8070  -37.0440 C   0  0  0  0  0  0  0  0  0  0  0  0
    5.5320  -33.2320  -33.6270 C   0  0  0  0  0  0  0  0  0  0  0  0
    7.4130  -36.1630  -37.4090 C   0  0  0  0  0  0  0  0  0  0  0  0
    5.9440  -35.0950  -35.7880 C   0  0  0  0  0  0  0  0  0  0  0  0
    5.9840  -31.8140  -31.8500 C   0  0  0  0  0  0  0  0  0  0  0  0
    9.3720  -36.1890  -32.9920 C   0  0  0  0  0  0  0  0  0  0  0  0
    7.6570  -33.3820  -32.8060 C   0  0  0  0  0  0  0  0  0  0  0  0
   10.2340  -35.1200  -33.7560 C   0  0  0  0  0  0  0  0  0  0  0  0
    6.7510  -33.7250  -33.8340 C   0  0  0  0  0  0  0  0  0  0  0  0
    8.1440  -35.3890  -35.2530 C   0  0  1  0  0  0  0  0  0  0  0  0
    6.9130  -34.7480  -35.0000 C   0  0  0  0  0  0  0  0  0  0  0  0
    9.0430  -33.5200  -32.3880 C   0  0  0  0  0  0  0  0  0  0  0  0
    9.7720  -32.5180  -30.4630 C   0  0  0  0  0  0  0  0  0  0  0  0
    5.1030  -32.3310  -32.7860 C   0  0  0  0  0  0  0  0  0  0  0  0
    8.2910  -31.5720  -30.7330 S   0  0  0  0  0  0  0  0  0  0  0  0
   10.6050  -32.2200  -29.4240 O   0  0  0  0  0  0  0  0  0  0  0  0
    7.2670  -32.3810  -31.8810 C   0  0  0  0  0  0  0  0  0  0  0  0
  1 16  1  0
 13  2  1  6
  3  9  1  1
  4  7  2  0
  5 17  1  0
  6  4  1  0
  6  2  1  0
  7 14  1  0
 10 15  1  0
 10 20  2  0
 11  3  1  0
 11  9  1  0
 12  5  2  0
 12 10  1  0
 13 14  1  0
 13  3  1  0
 14 12  1  0
 15  1  1  0
 16 19  2  0
 17  8  2  0
 18 16  1  0
 20  8  1  0
 20 18  1  0
M  END
$$$$

     RDKit          3D

 16 18  0  0  0  0  0  0  0  0999 V2000
    8.4600  -32.2550  -31.2850 C   0  0  0  0  0  0  0  0  0  0  0  0
    7.2510  -33.1570  -32.8380 C   0  0  0  0  0  0  0  0  0  0  0  0
    7.1550  -32.1120  -31.9240 C   0  0  0  0  0  0  0  0  0  0  0  0
    6.1740  -33.3810  -33.7180 C   0  0  0  0  0  0  0  0  0  0  0  0
    4.3520  -33.5030  -34.8270 C   0  0  0  0  0  0  0  0  0  0  0  0
   10.9360  -32.2630  -29.5990 C   0  0  0  0  0  0  0  0  0  0  0  0
    9.5460  -35.7690  -33.6460 C   0  0  0  0  0  0  0  0  0  0  0  0
    7.3020  -35.1930  -34.5290 C   0  0  0  0  0  0  0  0  0  0  0  0
    6.3350  -34.3770  -34.5100 C   0  0  0  0  0  0  0  0  0  0  0  0
    5.1890  -34.3490  -35.1700 N   0  0  0  0  0  0  0  0  0  0  0  0
    8.3610  -35.0010  -33.6190 C   0  0  0  0  0  0  0  0  0  0  0  0
    5.0280  -32.7840  -33.8040 O   0  0  0  0  0  0  0  0  0  0  0  0
   10.4830  -33.4460  -30.6150 C   0  0  0  0  0  0  0  0  0  0  0  0
    9.6550  -33.8580  -31.3430 O   0  0  0  0  0  0  0  0  0  0  0  0
    9.1360  -33.2760  -31.9470 C   0  0  1  0  0  0  0  0  0  0  0  0
    8.3560  -33.8350  -32.8670 C   0  0  0  0  0  0  0  0  0  0  0  0
  2  3  1  0
  3  1  2  0
  4  2  2  0
  5 12  1  0
  7 11  1  0
  8  9  2  0
  8 11  1  0
  9  4  1  0
 10  5  2  0
 10  9  1  0
 11 16  2  0
 12  4  1  0
 13  6  1  0
 14 13  1  0
 15 14  1  1
 15  1  1  0
 16  2  1  0
 16 15  1  0
M  END
$$$$

     RDKit          3D

 27 31  0  0  0  0  0  0  0  0999 V2000
   11.5110  -34.2490  -29.8350 C   0  0  0  0  0  0  0  0  0  0  0  0
    3.7280  -34.4080  -34.8780 C   0  0  0  0  0  0  0  0  0  0  0  0
   10.9030  -35.1410  -34.9920 O   0  0  0  0  0  0  0  0  0  0  0  0
    9.0000  -35.4350  -36.3520 C   0  0  0  0  0  0  0  0  0  0  0  0
    8.2060  -34.5580  -34.1450 C   0  0  0  0  0  0  0  0  0  0  0  0
    9.3340  -35.4250  -34.8250 C   0  0  2  0  0  0  0  0  0  0  0  0
    5.2110  -31.0820  -31.5910 C   0  0  0  0  0  0  0  0  0  0  0  0
    5.9440  -33.8420  -33.8630 C   0  0  0  0  0  0  0  0  0  0  0  0
   11.7750  -34.7190  -33.8580 C   0  0  0  0  0  0  0  0  0  0  0  0
    8.6010  -33.5800  -33.1810 C   0  0  0  0  0  0  0  0  0  0  0  0
    4.5800  -33.6260  -33.9710 N   0  0  0  0  0  0  0  0  0  0  0  0
    8.1360  -37.2760  -33.6770 F   0  0  0  0  0  0  0  0  0  0  0  0
   10.8380  -37.2080  -33.7440 C   0  0  1  0  0  0  0  0  0  0  0  0
   10.0640  -36.1590  -32.9740 C   0  0  1  0  0  0  0  0  0  0  0  0
    4.1860  -32.6400  -33.1310 N   0  0  0  0  0  0  0  0  0  0  0  0
    7.6890  -32.7560  -32.6020 C   0  0  0  0  0  0  0  0  0  0  0  0
   10.7050  -35.2000  -31.8860 C   0  0  0  0  0  0  0  0  0  0  0  0
    9.3160  -36.6780  -34.0620 C   0  0  2  0  0  0  0  0  0  0  0  0
   11.5970  -34.4750  -32.5380 C   0  0  0  0  0  0  0  0  0  0  0  0
   12.3810  -33.4340  -31.7770 C   0  0  0  0  0  0  0  0  0  0  0  0
    6.9250  -34.7060  -34.4210 C   0  0  0  0  0  0  0  0  0  0  0  0
   10.7030  -35.1800  -30.4150 C   0  0  0  0  0  0  0  0  0  0  0  0
    6.3520  -32.8640  -32.9270 C   0  0  0  0  0  0  0  0  0  0  0  0
   12.3410  -33.3970  -30.4800 C   0  0  0  0  0  0  0  0  0  0  0  0
   12.1170  -37.6580  -33.3580 C   0  0  0  0  0  0  0  0  0  0  0  0
    5.2210  -32.2070  -32.5410 N   0  0  0  0  0  0  0  0  0  0  0  0
   10.0800  -37.7370  -34.8060 C   0  0  0  0  0  0  0  0  0  0  0  0
  2 11  1  0
  3  6  1  0
  3  9  1  0
  5 10  2  0
  6  4  1  6
  6  5  1  0
  6 18  1  0
  8 23  1  0
  9 19  1  0
 10 16  1  0
 11  8  1  0
 11 15  1  0
 13 25  1  1
 13 14  1  0
 14 17  1  6
 15 26  1  0
 17 22  1  0
 18 12  1  1
 18 14  1  0
 19 17  2  0
 19 20  1  0
 20 24  2  0
 21  5  1  0
 21  8  2  0
 22  1  2  0
 23 16  2  0
 23 26  1  0
 24  1  1  0
 26  7  1  0
 27 18  1  0
 27 13  1  0
M  END
$$$$

     RDKit          3D

 38 43  0  0  0  0  0  0  0  0999 V2000
    3.5920  -34.2790  -36.4730 C   0  0  0  0  0  0  0  0  0  0  0  0
   14.7040  -32.8190  -26.9490 O   0  0  0  0  0  0  0  0  0  0  0  0
    9.6270  -33.4520  -30.9100 C   0  0  1  0  0  0  0  0  0  0  0  0
    4.6310  -34.3720  -35.6680 N   0  0  0  0  0  0  0  0  0  0  0  0
    7.1180  -35.5910  -36.5840 C   0  0  0  0  0  0  0  0  0  0  0  0
   11.1020  -32.7880  -32.6300 O   0  0  0  0  0  0  0  0  0  0  0  0
    3.2960  -33.0680  -34.7240 C   0  0  0  0  0  0  0  0  0  0  0  0
    9.1290  -32.4310  -31.7490 O   0  0  0  0  0  0  0  0  0  0  0  0
   12.0840  -34.2160  -31.0810 C   0  0  0  0  0  0  0  0  0  0  0  0
    1.7380  -34.1420  -40.7050 C   0  0  0  0  0  0  0  0  0  0  0  0
   10.8110  -33.8730  -31.7820 C   0  0  1  0  0  0  0  0  0  0  0  0
   12.2690  -33.4910  -29.7080 C   0  0  0  0  0  0  0  0  0  0  0  0
    5.5440  -33.1860  -33.8600 C   0  0  0  0  0  0  0  0  0  0  0  0
    9.7950  -36.4910  -35.2410 C   0  0  0  0  0  0  0  0  0  0  0  0
   13.6150  -32.8990  -27.6950 C   0  0  0  0  0  0  0  0  0  0  0  0
    8.7580  -35.7780  -34.6980 C   0  0  0  0  0  0  0  0  0  0  0  0
    1.3490  -34.1510  -39.2920 O   0  0  0  0  0  0  0  0  0  0  0  0
    4.4750  -33.5150  -34.7230 N   0  0  0  0  0  0  0  0  0  0  0  0
   12.5450  -32.4110  -27.0390 N   0  0  0  0  0  0  0  0  0  0  0  0
   13.4110  -33.4450  -29.0020 C   0  0  0  0  0  0  0  0  0  0  0  0
    3.4520  -34.9820  -37.8070 C   0  0  0  0  0  0  0  0  0  0  0  0
    7.4290  -35.9560  -35.2170 O   0  0  0  0  0  0  0  0  0  0  0  0
    1.1060  -35.2650  -37.2700 C   0  0  0  0  0  0  0  0  0  0  0  0
    5.6060  -32.2290  -32.9010 C   0  0  0  0  0  0  0  0  0  0  0  0
    7.8960  -33.9020  -33.3890 C   0  0  0  0  0  0  0  0  0  0  0  0
    6.8990  -31.9480  -32.2140 C   0  0  0  0  0  0  0  0  0  0  0  0
   10.9700  -36.5570  -34.4770 C   0  0  0  0  0  0  0  0  0  0  0  0
   10.0770  -32.4210  -29.8290 C   0  0  0  0  0  0  0  0  0  0  0  0
    2.1040  -34.6100  -38.3030 N   0  0  0  0  0  0  0  0  0  0  0  0
   11.2190  -35.7440  -33.3690 C   0  0  0  0  0  0  0  0  0  0  0  0
   10.3060  -34.8640  -32.8860 C   0  0  0  0  0  0  0  0  0  0  0  0
    2.6100  -33.5890  -35.7990 N   0  0  0  0  0  0  0  0  0  0  0  0
    8.9380  -34.7890  -33.7250 C   0  0  0  0  0  0  0  0  0  0  0  0
    6.6450  -34.0130  -34.0580 C   0  0  0  0  0  0  0  0  0  0  0  0
   11.4030  -32.2500  -27.7640 C   0  0  0  0  0  0  0  0  0  0  0  0
    7.9690  -32.7480  -32.5240 C   0  0  0  0  0  0  0  0  0  0  0  0
   11.2770  -32.7020  -29.0700 C   0  0  0  0  0  0  0  0  0  0  0  0
   10.4650  -31.5990  -27.1140 N   0  0  0  0  0  0  0  0  0  0  0  0
  1 32  1  0
  1  4  2  0
  3 28  1  1
  4 18  1  0
  5 22  1  0
  7 18  1  0
  8  3  1  0
  9 12  1  0
 10 17  1  0
 11  6  1  6
 11  9  1  0
 11  3  1  0
 12 37  1  0
 12 20  2  0
 13 24  1  0
 14 16  1  0
 14 27  2  0
 15 19  1  0
 15  2  2  0
 16 33  2  0
 17 29  1  0
 18 13  1  0
 20 15  1  0
 21  1  1  0
 22 16  1  0
 24 26  2  0
 25 36  2  0
 27 30  1  0
 29 21  1  0
 29 23  1  0
 30 31  2  0
 31 11  1  0
 32  7  1  0
 33 25  1  0
 33 31  1  0
 34 13  2  0
 34 25  1  0
 35 38  1  0
 35 19  2  0
 36 26  1  0
 36  8  1  0
 37 28  1  0
 37 35  1  0
M  END
$$$$

     RDKit          3D

 24 27  0  0  0  0  0  0  0  0999 V2000
    7.0360  -31.6820  -31.2050 C   0  0  0  0  0  0  0  0  0  0  0  0
    7.9630  -32.3570  -31.7970 C   0  0  0  0  0  0  0  0  0  0  0  0
    7.3870  -34.7000  -34.4030 C   0  0  0  0  0  0  0  0  0  0  0  0
    9.9380  -32.6980  -30.4170 C   0  0  0  0  0  0  0  0  0  0  0  0
    4.0100  -35.1880  -35.5670 C   0  0  0  0  0  0  0  0  0  0  0  0
    9.8230  -33.5210  -32.4520 C   0  0  1  0  0  0  0  0  0  0  0  0
    6.1330  -33.1890  -33.1870 C   0  0  0  0  0  0  0  0  0  0  0  0
    4.4900  -35.8520  -37.5980 F   0  0  0  0  0  0  0  0  0  0  0  0
    5.3950  -32.2250  -32.7370 C   0  0  0  0  0  0  0  0  0  0  0  0
    9.5960  -36.9400  -34.1110 C   0  0  0  0  0  0  0  0  0  0  0  0
   11.0840  -33.2600  -30.5940 C   0  0  0  0  0  0  0  0  0  0  0  0
    9.2030  -32.7920  -31.4990 N   0  0  0  0  0  0  0  0  0  0  0  0
    4.3980  -35.4540  -36.6540 C   0  0  2  0  0  0  0  0  0  0  0  0
   10.3950  -35.7560  -33.7070 C   0  0  1  0  0  0  0  0  0  0  0  0
    7.3250  -33.6630  -33.5700 N   0  0  0  0  0  0  0  0  0  0  0  0
    7.3930  -33.1510  -32.9490 C   0  0  0  0  0  0  0  0  0  0  0  0
    6.2030  -35.6380  -36.4890 S   0  0  0  0  0  0  0  0  0  0  0  0
   11.1310  -33.6120  -31.9030 C   0  0  0  0  0  0  0  0  0  0  0  0
    5.6320  -31.4560  -31.4500 C   0  0  0  0  0  0  0  0  0  0  0  0
    5.2420  -34.9640  -34.5760 C   0  0  0  0  0  0  0  0  0  0  0  0
    8.4980  -34.9620  -34.5750 N   0  0  0  0  0  0  0  0  0  0  0  0
    6.2250  -34.8960  -34.9100 C   0  0  1  0  0  0  0  0  0  0  0  0
   11.4160  -35.6900  -34.2860 O   0  0  0  0  0  0  0  0  0  0  0  0
    9.4950  -34.5270  -33.6400 C   0  0  1  0  0  0  0  0  0  0  0  0
  2 12  1  0
  2  1  1  0
  3 15  2  3
  5 20  1  0
  6 18  1  1
  6 12  1  0
  7 16  1  0
  7  9  1  0
  9 19  1  0
 11  4  1  0
 12  4  1  0
 13  8  1  1
 13 17  1  0
 13  5  1  0
 14 10  1  6
 15 16  1  0
 16  2  2  0
 17 22  1  0
 18 11  1  0
 19  1  1  0
 21  3  1  0
 24 21  1  1
 22 20  1  1
 22  3  1  0
 23 14  1  0
 24 14  1  0
 24  6  1  0
M  END
$$$$

     RDKit          3D

 20 23  0  0  0  0  0  0  0  0999 V2000
    5.6280  -34.4370  -34.2850 O   0  0  0  0  0  0  0  0  0  0  0  0
    7.9190  -35.0530  -34.5400 C   0  0  0  0  0  0  0  0  0  0  0  0
   11.4760  -32.8960  -31.7140 C   0  0  0  0  0  0  0  0  0  0  0  0
    6.2530  -31.8590  -31.3560 C   0  0  0  0  0  0  0  0  0  0  0  0
   10.6240  -35.2240  -33.6990 N   0  0  0  0  0  0  0  0  0  0  0  0
   10.1360  -33.4160  -31.9830 C   0  0  1  0  0  0  0  0  0  0  0  0
    6.5950  -34.9030  -34.9660 C   0  0  0  0  0  0  0  0  0  0  0  0
    7.2900  -31.4490  -30.5260 N   0  0  0  0  0  0  0  0  0  0  0  0
    9.7900  -34.3700  -33.0580 C   0  0  0  0  0  0  0  0  0  0  0  0
    6.2620  -35.4390  -36.1640 O   0  0  0  0  0  0  0  0  0  0  0  0
    8.4780  -34.2630  -33.4650 C   0  0  0  0  0  0  0  0  0  0  0  0
    8.8310  -35.9750  -35.1160 C   0  0  0  0  0  0  0  0  0  0  0  0
    6.5900  -32.7820  -32.3920 C   0  0  0  0  0  0  0  0  0  0  0  0
    4.9320  -35.9010  -36.1600 C   0  0  0  0  0  0  0  0  0  0  0  0
    7.8940  -33.3100  -32.5390 C   0  0  0  0  0  0  0  0  0  0  0  0
   10.9980  -33.8920  -30.7900 C   0  0  0  0  0  0  0  0  0  0  0  0
   10.1660  -36.0510  -34.6340 C   0  0  0  0  0  0  0  0  0  0  0  0
    4.8910  -31.3920  -31.0800 C   0  0  0  0  0  0  0  0  0  0  0  0
    8.5690  -31.9240  -30.6960 C   0  0  0  0  0  0  0  0  0  0  0  0
    8.8580  -32.8130  -31.6670 C   0  0  0  0  0  0  0  0  0  0  0  0
  2 11  2  0
  3 16  1  0
  4 18  1  0
  4  8  2  0
  5  9  2  0
  6  3  1  6
  6 20  1  0
  6 16  1  0
  7  2  1  0
  7  1  2  0
  9  6  1  0
 10 14  1  0
 10  7  1  0
 11  9  1  0
 11 15  1  0
 12 17  2  0
 12  2  1  0
 13  4  1  0
 15 13  2  0
 15 20  1  0
 17  5  1  0
 19  8  1  0
 20 19  2  0
M  END
$$$$

     RDKit          3D

 34 39  0  0  0  0  0  0  0  0999 V2000
    8.6440  -33.7640  -32.1820 C   0  0  1  0  0  0  0  0  0  0  0  0
    6.1060  -33.6090  -33.6880 N   0  0  0  0  0  0  0  0  0  0  0  0
    8.8540  -33.4140  -31.0860 N   0  0  0  0  0  0  0  0  0  0  0  0
    2.4760  -32.5860  -33.1090 S   0  0  0  0  0  0  0  0  0  0  0  0
    7.9790  -34.5470  -34.0060 N   0  0  0  0  0  0  0  0  0  0  0  0
   11.6700  -32.8720  -28.7580 C   0  0  0  0  0  0  0  0  0  0  0  0
    4.9080  -32.8260  -33.2630 C   0  0  0  0  0  0  0  0  0  0  0  0
    3.6590  -33.9620  -35.3050 C   0  0  0  0  0  0  0  0  0  0  0  0
    3.5140  -31.8530  -32.0190 C   0  0  1  0  0  0  0  0  0  0  0  0
   11.1320  -33.9870  -32.9270 C   0  0  0  0  0  0  0  0  0  0  0  0
   10.1310  -33.2670  -30.5550 C   0  0  0  0  0  0  0  0  0  0  0  0
    2.4310  -33.8940  -36.1540 C   0  0  0  0  0  0  0  0  0  0  0  0
    7.6740  -35.3140  -36.0600 O   0  0  0  0  0  0  0  0  0  0  0  0
   13.2680  -33.6480  -31.9990 O   0  0  0  0  0  0  0  0  0  0  0  0
    4.9930  -35.1670  -37.2340 C   0  0  0  0  0  0  0  0  0  0  0  0
    9.5980  -36.2240  -34.2510 C   0  0  2  0  0  0  0  0  0  0  0  0
   11.1310  -33.5510  -31.4180 C   0  0  0  0  0  0  0  0  0  0  0  0
    8.8070  -36.9700  -34.9450 F   0  0  0  0  0  0  0  0  0  0  0  0
    9.1630  -34.9100  -33.9920 C   0  0  2  0  0  0  0  0  0  0  0  0
    7.2210  -34.8030  -34.9490 C   0  0  0  0  0  0  0  0  0  0  0  0
    6.0840  -34.2820  -34.8540 C   0  0  0  0  0  0  0  0  0  0  0  0
    2.9860  -31.3220  -31.1520 F   0  0  0  0  0  0  0  0  0  0  0  0
    9.4590  -34.7820  -32.3720 O   0  0  0  0  0  0  0  0  0  0  0  0
   12.0320  -32.5380  -27.4160 C   0  0  0  0  0  0  0  0  0  0  0  0
   12.4260  -33.4660  -30.9540 C   0  0  0  0  0  0  0  0  0  0  0  0
    7.5860  -33.7900  -32.9800 C   0  0  0  0  0  0  0  0  0  0  0  0
   10.8040  -36.1860  -34.9000 F   0  0  0  0  0  0  0  0  0  0  0  0
   10.3600  -32.8750  -29.2290 C   0  0  0  0  0  0  0  0  0  0  0  0
    4.7450  -32.0640  -32.0110 C   0  0  0  0  0  0  0  0  0  0  0  0
   12.7160  -33.2220  -29.6000 C   0  0  0  0  0  0  0  0  0  0  0  0
    9.8310  -36.7290  -32.8090 F   0  0  0  0  0  0  0  0  0  0  0  0
    3.6430  -33.2010  -34.0700 C   0  0  0  0  0  0  0  0  0  0  0  0
    4.8570  -34.6090  -35.8270 C   0  0  0  0  0  0  0  0  0  0  0  0
   12.5490  -33.8710  -33.1180 N   0  0  0  0  0  0  0  0  0  0  0  0
  1  3  1  1
  2  7  1  0
  2 26  1  0
  3 11  1  0
  4  9  1  0
  5 19  1  0
  6 24  1  0
  7 29  2  0
  8 32  2  0
  9 29  1  0
  9 22  1  1
 10 17  1  0
 11 28  1  0
 12  8  1  0
 13 20  2  0
 14 25  1  0
 15 33  1  0
 16 31  1  1
 17 25  1  0
 17 11  2  0
 18 16  1  0
 19 16  1  0
 19 23  1  1
 20 21  1  0
 20  5  1  0
 21  2  1  0
 23  1  1  0
 25 30  2  0
 26  5  1  0
 26  1  1  0
 27 16  1  0
 28  6  2  0
 30  6  1  0
 32  7  1  0
 32  4  1  0
 33  8  1  0
 33 21  2  0
 34 10  2  0
 34 14  1  0
M  END
$$$$

     RDKit          3D

 37 43  0  0  0  0  0  0  0  0999 V2000
    2.0390  -31.4580  -31.2240 C   0  0  0  0  0  0  0  0  0  0  0  0
    2.5340  -31.7680  -29.9910 C   0  0  0  0  0  0  0  0  0  0  0  0
    9.0680  -33.5520  -32.6500 C   0  0  2  0  0  0  0  0  0  0  0  0
   12.4430  -33.1950  -31.0430 C   0  0  1  0  0  0  0  0  0  0  0  0
    6.4590  -33.4210  -33.4300 C   0  0  0  0  0  0  0  0  0  0  0  0
    4.0460  -34.8480  -37.2910 N   0  0  0  0  0  0  0  0  0  0  0  0
    4.8190  -33.8940  -34.7800 N   0  0  0  0  0  0  0  0  0  0  0  0
    6.6710  -34.8190  -35.1550 C   0  0  0  0  0  0  0  0  0  0  0  0
    7.3560  -34.2030  -34.0350 C   0  0  0  0  0  0  0  0  0  0  0  0
    6.8590  -32.8470  -32.3150 N   0  0  0  0  0  0  0  0  0  0  0  0
   12.2320  -33.8770  -33.3430 C   0  0  0  0  0  0  0  0  0  0  0  0
   11.1260  -32.6400  -29.8970 C   0  0  2  0  0  0  0  0  0  0  0  0
    2.6400  -35.2060  -37.2170 C   0  0  0  0  0  0  0  0  0  0  0  0
    9.3240  -36.4460  -33.9900 C   0  0  0  0  0  0  0  0  0  0  0  0
    8.7890  -34.5980  -33.7050 C   0  0  2  0  0  0  0  0  0  0  0  0
    8.7450  -31.3060  -30.8040 C   0  0  0  0  0  0  0  0  0  0  0  0
   11.0650  -31.6500  -28.9370 C   0  0  0  0  0  0  0  0  0  0  0  0
    2.3800  -31.6860  -32.5260 C   0  0  0  0  0  0  0  0  0  0  0  0
    3.7950  -32.0900  -32.5830 N   0  0  0  0  0  0  0  0  0  0  0  0
    4.4470  -34.3310  -38.5480 C   0  0  0  0  0  0  0  0  0  0  0  0
   11.4910  -33.1250  -32.4190 C   0  0  1  0  0  0  0  0  0  0  0  0
   13.6170  -34.1760  -32.8180 C   0  0  0  0  0  0  0  0  0  0  0  0
    7.9380  -37.0330  -34.4690 C   0  0  0  0  0  0  0  0  0  0  0  0
   10.0040  -33.2120  -30.5090 N   0  0  0  0  0  0  0  0  0  0  0  0
    5.9670  -31.9810  -31.4790 C   0  0  0  0  0  0  0  0  0  0  0  0
   12.0410  -33.1740  -30.0480 N   0  0  0  0  0  0  0  0  0  0  0  0
    5.3810  -33.4550  -33.5980 C   0  0  2  0  0  0  0  0  0  0  0  0
    8.6670  -32.7900  -30.6860 C   0  0  2  0  0  0  0  0  0  0  0  0
   13.4060  -34.2680  -31.3270 C   0  0  0  0  0  0  0  0  0  0  0  0
    4.5970  -31.8140  -31.2540 C   0  0  2  0  0  0  0  0  0  0  0  0
    9.7980  -35.8110  -34.1500 C   0  0  0  0  0  0  0  0  0  0  0  0
   10.3870  -33.6340  -31.8340 C   0  0  1  0  0  0  0  0  0  0  0  0
    5.6040  -34.5990  -35.4790 C   0  0  0  0  0  0  0  0  0  0  0  0
    8.0170  -33.3270  -31.8850 C   0  0  2  0  0  0  0  0  0  0  0  0
    3.7810  -32.6540  -30.1570 C   0  0  0  0  0  0  0  0  0  0  0  0
    4.9460  -35.3580  -36.6390 C   0  0  0  0  0  0  0  0  0  0  0  0
    4.5830  -32.9040  -33.3340 C   0  0  0  0  0  0  0  0  0  0  0  0
  1  2  1  0
  3 34  1  0
  3 32  1  0
  4 26  1  0
  5 10  1  0
  6 13  1  0
  6 36  1  0
  7 27  1  0
  8  9  1  0
  9 15  1  0
  9  5  2  0
 34 10  1  6
 10 25  1  0
 11 22  1  0
 21 11  1  6
 12 17  1  1
  3 15  1  1
 28 16  1  6
 18  1  1  0
 19 18  1  0
 19 30  1  0
 20  6  1  0
 21 32  1  0
 21  4  1  0
 22 29  1  0
 23 14  1  0
 24 12  1  0
 30 25  1  6
 26 12  1  0
 27  5  1  0
 27 37  1  6
 28 24  1  0
  4 29  1  6
 30 35  1  0
 31 14  1  0
 15 31  1  1
 32 24  1  1
 33  8  2  0
 33  7  1  0
 34 28  1  0
 35  2  1  0
 36 33  1  0
 37 19  1  0
M  END
$$$$

     RDKit          3D

 18 20  0  0  0  0  0  0  0  0999 V2000
    6.6430  -32.3430  -32.5670 C   0  0  0  0  0  0  0  0  0  0  0  0
    6.1220  -35.4750  -35.3380 C   0  0  0  0  0  0  0  0  0  0  0  0
    5.2290  -33.5900  -34.1210 C   0  0  0  0  0  0  0  0  0  0  0  0
    7.3320  -35.3520  -34.6480 C   0  0  0  0  0  0  0  0  0  0  0  0
    9.4410  -36.3240  -32.8470 F   0  0  0  0  0  0  0  0  0  0  0  0
    5.1120  -34.6070  -35.0680 C   0  0  0  0  0  0  0  0  0  0  0  0
   10.8060  -34.5140  -32.3080 C   0  0  0  0  0  0  0  0  0  0  0  0
   10.2330  -33.3010  -31.6510 C   0  0  1  0  0  0  0  0  0  0  0  0
    9.7570  -35.0640  -33.1700 C   0  0  1  0  0  0  0  0  0  0  0  0
   10.2500  -35.0920  -34.4950 F   0  0  0  0  0  0  0  0  0  0  0  0
    8.8750  -33.2250  -32.1370 C   0  0  0  0  0  0  0  0  0  0  0  0
   10.7270  -34.2250  -29.5250 O   0  0  0  0  0  0  0  0  0  0  0  0
    8.6470  -34.2320  -33.0610 N   0  0  0  0  0  0  0  0  0  0  0  0
   11.0490  -32.0640  -29.8200 O   0  0  0  0  0  0  0  0  0  0  0  0
    7.8910  -32.3720  -31.9840 C   0  0  0  0  0  0  0  0  0  0  0  0
    6.4740  -33.4440  -33.4860 C   0  0  0  0  0  0  0  0  0  0  0  0
    7.4910  -34.3380  -33.7390 C   0  0  0  0  0  0  0  0  0  0  0  0
   10.6570  -33.2720  -30.2580 C   0  0  0  0  0  0  0  0  0  0  0  0
  1 15  1  0
  2  6  2  0
  2  4  1  0
  3 16  1  0
  4 17  2  0
  6  3  1  0
  7  8  1  0
  8 18  1  1
  9 13  1  0
  9  5  1  1
  9  7  1  0
 10  9  1  0
 11 15  2  0
 11  8  1  0
 13 11  1  0
 16  1  2  0
 17 16  1  0
 17 13  1  0
 18 14  2  0
 18 12  1  0
M  END
$$$$

     RDKit          3D

 17 19  0  0  0  0  0  0  0  0999 V2000
    3.7410  -33.6950  -33.6080 O   0  0  0  0  0  0  0  0  0  0  0  0
    6.5760  -33.1240  -33.1780 C   0  0  0  0  0  0  0  0  0  0  0  0
    8.7210  -36.4540  -35.4050 C   0  0  0  0  0  0  0  0  0  0  0  0
    8.0830  -31.7760  -30.9980 C   0  0  0  0  0  0  0  0  0  0  0  0
    6.6910  -31.5010  -31.2660 C   0  0  0  0  0  0  0  0  0  0  0  0
    5.1060  -35.2410  -36.5570 C   0  0  0  0  0  0  0  0  0  0  0  0
    6.8790  -34.8590  -34.9810 C   0  0  0  0  0  0  0  0  0  0  0  0
    6.3510  -35.3860  -36.1200 C   0  0  0  0  0  0  0  0  0  0  0  0
    7.8450  -33.0750  -33.1870 C   0  0  0  0  0  0  0  0  0  0  0  0
    8.1110  -35.0720  -34.5430 C   0  0  2  0  0  0  0  0  0  0  0  0
    4.2310  -34.7210  -35.6060 C   0  0  0  0  0  0  0  0  0  0  0  0
    5.9390  -34.0560  -34.1950 C   0  0  0  0  0  0  0  0  0  0  0  0
    8.4590  -32.5720  -32.1300 C   0  0  0  0  0  0  0  0  0  0  0  0
    4.6520  -34.1180  -34.4860 C   0  0  0  0  0  0  0  0  0  0  0  0
    6.0170  -32.1410  -32.0790 C   0  0  0  0  0  0  0  0  0  0  0  0
    8.5750  -31.3240  -29.9020 O   0  0  0  0  0  0  0  0  0  0  0  0
    8.7300  -33.6100  -33.9370 C   0  0  0  0  0  0  0  0  0  0  0  0
  2 15  2  0
  4 16  1  0
  5  4  2  0
  6  8  2  0
  6 11  1  0
  7 10  1  0
  7 12  2  0
  8  7  1  0
  9  2  1  0
  9 13  2  0
 10  3  1  6
 10 17  1  0
 11 14  2  0
 12  2  1  0
 13  4  1  0
 14 12  1  0
 14  1  1  0
 15  5  1  0
 17  9  1  0
M  END
$$$$

     RDKit          3D

 16 19  0  0  0  0  0  0  0  0999 V2000
    6.6090  -33.0020  -32.9250 C   0  0  0  0  0  0  0  0  0  0  0  0
    8.4330  -34.6440  -33.6950 C   0  0  0  0  0  0  0  0  0  0  0  0
    6.9700  -34.6430  -35.1350 S   0  0  0  0  0  0  0  0  0  0  0  0
    7.4190  -34.0190  -33.8020 C   0  0  1  0  0  0  0  0  0  0  0  0
    6.7210  -32.0880  -32.1850 C   0  0  0  0  0  0  0  0  0  0  0  0
    7.8600  -32.8710  -32.7750 C   0  0  2  0  0  0  0  0  0  0  0  0
    9.0330  -33.3750  -32.2990 C   0  0  0  0  0  0  0  0  0  0  0  0
    5.3500  -32.8740  -32.9200 C   0  0  0  0  0  0  0  0  0  0  0  0
   10.2030  -33.9030  -32.3750 C   0  0  0  0  0  0  0  0  0  0  0  0
    9.5960  -34.8330  -34.0040 C   0  0  0  0  0  0  0  0  0  0  0  0
    7.0280  -34.3980  -34.4650 C   0  0  2  0  0  0  0  0  0  0  0  0
    8.2800  -34.9890  -34.0650 C   0  0  1  0  0  0  0  0  0  0  0  0
    9.8760  -34.1980  -33.1480 C   0  0  0  0  0  0  0  0  0  0  0  0
    8.8990  -33.1860  -31.3810 F   0  0  0  0  0  0  0  0  0  0  0  0
    7.6510  -33.8310  -33.2740 C   0  0  1  0  0  0  0  0  0  0  0  0
    8.5450  -35.1400  -34.9730 C   0  0  0  0  0  0  0  0  0  0  0  0
  1  8  1  0
  1  6  1  0
  1  5  1  0
  4  2  1  6
  4 15  1  0
  6  7  1  0
  6  5  1  6
  7 14  1  0
  9  7  1  0
 10 13  1  0
 11  3  1  6
 11 12  1  0
 11  4  1  0
 12 16  1  1
 12 10  1  0
 12  2  1  0
 13  9  1  0
 15  1  1  1
 15  6  1  0
M  END
$$$$

     RDKit          3D

 24 27  0  0  0  0  0  0  0  0999 V2000
    2.9650  -32.8020  -33.4220 C   0  0  0  0  0  0  0  0  0  0  0  0
    3.7210  -34.1520  -35.1780 O   0  0  0  0  0  0  0  0  0  0  0  0
   11.1710  -33.5950  -32.1040 C   0  0  2  0  0  0  0  0  0  0  0  0
   10.1970  -33.4200  -30.2230 C   0  0  0  0  0  0  0  0  0  0  0  0
    8.2780  -33.3700  -33.1690 C   0  0  0  0  0  0  0  0  0  0  0  0
    4.0840  -34.8200  -36.1890 C   0  0  0  0  0  0  0  0  0  0  0  0
    4.4700  -32.0280  -31.8710 C   0  0  0  0  0  0  0  0  0  0  0  0
   10.8290  -35.4330  -33.6020 C   0  0  0  0  0  0  0  0  0  0  0  0
    8.7910  -35.4760  -34.8160 C   0  0  0  0  0  0  0  0  0  0  0  0
    8.2720  -34.4740  -33.9650 C   0  0  0  0  0  0  0  0  0  0  0  0
   10.4950  -34.1810  -32.8810 C   0  0  1  0  0  0  0  0  0  0  0  0
    9.9960  -35.9540  -34.6860 C   0  0  0  0  0  0  0  0  0  0  0  0
    5.2850  -33.3140  -33.6830 C   0  0  0  0  0  0  0  0  0  0  0  0
    8.7610  -33.0900  -31.9150 C   0  0  0  0  0  0  0  0  0  0  0  0
    3.9860  -33.4270  -34.1050 C   0  0  0  0  0  0  0  0  0  0  0  0
    6.6790  -32.3360  -31.9330 N   0  0  0  0  0  0  0  0  0  0  0  0
    3.2180  -32.0580  -32.3270 C   0  0  0  0  0  0  0  0  0  0  0  0
   12.4130  -33.3180  -31.7500 C   0  0  0  0  0  0  0  0  0  0  0  0
    5.5370  -32.4920  -32.5210 C   0  0  0  0  0  0  0  0  0  0  0  0
    4.7850  -31.2840  -30.5890 O   0  0  0  0  0  0  0  0  0  0  0  0
    7.8270  -32.3490  -31.3470 N   0  0  0  0  0  0  0  0  0  0  0  0
   10.0530  -33.5500  -31.5090 C   0  0  2  0  0  0  0  0  0  0  0  0
   12.4510  -33.1000  -30.3070 C   0  0  0  0  0  0  0  0  0  0  0  0
   11.3690  -33.2270  -29.5130 C   0  0  0  0  0  0  0  0  0  0  0  0
  1 17  2  0
  2 15  1  0
  3 18  1  1
  3 22  1  0
  4 24  2  0
  5 14  1  0
  6  2  1  0
  7 20  1  0
  9 12  1  0
  9 10  2  0
 10  5  2  0
 11  8  1  1
 11  3  1  0
 11 22  1  0
 12  8  1  0
 13 19  1  0
 14 22  1  0
 14 21  2  3
 15 13  2  0
 15  1  1  0
 16 21  1  0
 17  7  1  0
 18 23  2  0
 19 16  1  0
 19  7  2  0
 22  4  1  1
 23 24  1  0
M  END
$$$$

     RDKit          3D

 21 26  0  0  0  0  0  0  0  0999 V2000
    7.1790  -35.6740  -34.6620 N   0  0  0  0  0  0  0  0  0  0  0  0
   10.3210  -35.4260  -32.7420 C   0  0  0  0  0  0  0  0  0  0  0  0
   10.5120  -33.8330  -32.2080 C   0  0  0  0  0  0  0  0  0  0  0  0
    9.6100  -37.2220  -34.3090 C   0  0  0  0  0  0  0  0  0  0  0  0
    9.2960  -35.6850  -33.2350 C   0  0  2  0  0  0  0  0  0  0  0  0
    5.2830  -34.8890  -35.0340 O   0  0  0  0  0  0  0  0  0  0  0  0
    6.4690  -35.0580  -34.9740 C   0  0  0  0  0  0  0  0  0  0  0  0
    9.3950  -34.9550  -33.9530 C   0  0  1  0  0  0  0  0  0  0  0  0
    7.3730  -32.9050  -32.5360 C   0  0  0  0  0  0  0  0  0  0  0  0
    8.6150  -35.5100  -34.3910 C   0  0  2  0  0  0  0  0  0  0  0  0
    7.4010  -32.1690  -31.3700 C   0  0  0  0  0  0  0  0  0  0  0  0
    9.3680  -33.2310  -31.8780 C   0  0  0  0  0  0  0  0  0  0  0  0
    5.0660  -31.6920  -31.5760 C   0  0  0  0  0  0  0  0  0  0  0  0
    8.7290  -32.3200  -31.0110 C   0  0  0  0  0  0  0  0  0  0  0  0
    5.0670  -32.4660  -32.7920 C   0  0  0  0  0  0  0  0  0  0  0  0
    6.2620  -31.6200  -30.8480 C   0  0  0  0  0  0  0  0  0  0  0  0
    8.3630  -36.8750  -33.8570 C   0  0  1  0  0  0  0  0  0  0  0  0
    6.2300  -33.0110  -33.3690 C   0  0  0  0  0  0  0  0  0  0  0  0
    3.9920  -32.7020  -33.4820 F   0  0  0  0  0  0  0  0  0  0  0  0
    8.6170  -33.6850  -32.9890 C   0  0  0  0  0  0  0  0  0  0  0  0
   10.3520  -36.2280  -33.6620 C   0  0  1  0  0  0  0  0  0  0  0  0
  1 17  1  0
  3 12  1  0
  5  2  1  6
  6  7  2  0
  7  1  1  0
  8  5  1  0
  8 20  1  1
  9 18  1  0
  9 11  1  0
 10  1  1  6
 10  8  1  0
 10 17  1  0
 10  5  1  0
 11 14  2  0
 11 16  1  0
 12 14  1  0
 13 16  2  0
 15 13  1  0
 17  4  1  6
 18 15  2  0
 19 15  1  0
 20  9  1  0
 20 12  2  0
 21  4  1  1
 21  5  1  0
 21  2  1  0
M  END
$$$$

     RDKit          3D

 32 38  0  0  0  0  0  0  0  0999 V2000
    9.8600  -34.8160  -33.8950 N   0  0  0  0  0  0  0  0  0  0  0  0
    3.8820  -33.1690  -33.7570 C   0  0  0  0  0  0  0  0  0  0  0  0
    8.5840  -34.7950  -36.2330 O   0  0  0  0  0  0  0  0  0  0  0  0
    8.5310  -35.3260  -35.0030 C   0  0  2  0  0  0  0  0  0  0  0  0
   11.8760  -32.0250  -26.7840 O   0  0  0  0  0  0  0  0  0  0  0  0
    9.4810  -37.3450  -33.9300 C   0  0  0  0  0  0  0  0  0  0  0  0
    6.7580  -31.9940  -31.8410 O   0  0  0  0  0  0  0  0  0  0  0  0
    3.9620  -34.7150  -35.7310 C   0  0  0  0  0  0  0  0  0  0  0  0
    4.5140  -32.4000  -32.7920 C   0  0  0  0  0  0  0  0  0  0  0  0
    2.5400  -33.1120  -33.8610 O   0  0  0  0  0  0  0  0  0  0  0  0
   12.8720  -32.8830  -28.6830 O   0  0  0  0  0  0  0  0  0  0  0  0
    6.5700  -33.4610  -33.4060 C   0  0  0  0  0  0  0  0  0  0  0  0
    5.8840  -32.5450  -32.6350 C   0  0  0  0  0  0  0  0  0  0  0  0
    7.9570  -32.4640  -32.0000 C   0  0  2  0  0  0  0  0  0  0  0  0
   10.3490  -33.6790  -33.3900 C   0  0  2  0  0  0  0  0  0  0  0  0
    7.8730  -33.3970  -32.9400 O   0  0  0  0  0  0  0  0  0  0  0  0
    5.9130  -34.2410  -34.4010 C   0  0  0  0  0  0  0  0  0  0  0  0
    6.5700  -35.3010  -35.0780 C   0  0  0  0  0  0  0  0  0  0  0  0
   10.6360  -33.2070  -29.6140 C   0  0  0  0  0  0  0  0  0  0  0  0
   11.9700  -33.7630  -33.4740 C   0  0  0  0  0  0  0  0  0  0  0  0
   12.6610  -33.4220  -30.9320 C   0  0  0  0  0  0  0  0  0  0  0  0
    9.8920  -33.0340  -30.9160 C   0  0  0  0  0  0  0  0  0  0  0  0
    9.9400  -36.0770  -33.0450 C   0  0  0  0  0  0  0  0  0  0  0  0
    8.6120  -32.4430  -30.8760 C   0  0  0  0  0  0  0  0  0  0  0  0
    4.5480  -35.9480  -36.3260 C   0  0  0  0  0  0  0  0  0  0  0  0
    6.0390  -35.9940  -35.9870 C   0  0  0  0  0  0  0  0  0  0  0  0
   12.0400  -33.5340  -32.0090 C   0  0  0  0  0  0  0  0  0  0  0  0
    8.6550  -36.8290  -34.9860 C   0  0  0  0  0  0  0  0  0  0  0  0
   12.3040  -32.5540  -27.7850 C   0  0  0  0  0  0  0  0  0  0  0  0
   12.0830  -33.2070  -29.6410 C   0  0  0  0  0  0  0  0  0  0  0  0
   10.4850  -33.5870  -31.8750 C   0  0  0  0  0  0  0  0  0  0  0  0
    4.5840  -34.0560  -34.6560 C   0  0  0  0  0  0  0  0  0  0  0  0
  1 15  1  0
  1 23  1  0
  2  9  2  0
  4  3  1  6
  4 28  1  0
  4  1  1  0
  6 23  1  0
  8 32  1  0
  9 13  1  0
 10  2  1  0
 11 29  1  0
 12 16  1  0
 12 13  2  0
 13  7  1  0
 14  7  1  0
 14 24  1  1
 15 20  1  6
 15 31  1  0
 16 14  1  0
 17 12  1  0
 18  4  1  0
 18 17  1  0
 20 27  1  0
 21 30  2  0
 22 24  1  0
 22 19  2  0
 25 26  1  0
 25  8  1  0
 26 18  2  0
 27 31  2  0
 27 21  1  0
 28  6  1  0
 29  5  1  0
 30 19  1  0
 30 11  1  0
 31 22  1  0
 32 17  2  0
 32  2  1  0
M  END
$$$$

     RDKit          3D

 30 33  0  0  0  0  0  0  0  0999 V2000
    3.2760  -33.9150  -37.6840 O   0  0  0  0  0  0  0  0  0  0  0  0
    4.7430  -31.7880  -31.9600 N   0  0  0  0  0  0  0  0  0  0  0  0
    5.4340  -34.1900  -36.6610 O   0  0  0  0  0  0  0  0  0  0  0  0
    4.1030  -33.9050  -36.6090 C   0  0  0  0  0  0  0  0  0  0  0  0
   12.0880  -33.9460  -30.5210 C   0  0  0  0  0  0  0  0  0  0  0  0
    7.0050  -31.7110  -31.0930 C   0  0  0  0  0  0  0  0  0  0  0  0
    7.9580  -31.1490  -30.2770 O   0  0  0  0  0  0  0  0  0  0  0  0
    8.3270  -32.9180  -32.4860 C   0  0  2  0  0  0  0  0  0  0  0  0
   10.8020  -36.0310  -34.6920 C   0  0  0  0  0  0  0  0  0  0  0  0
    8.2520  -35.0150  -35.4560 O   0  0  0  0  0  0  0  0  0  0  0  0
   11.3670  -37.9930  -34.2900 O   0  0  0  0  0  0  0  0  0  0  0  0
    9.0910  -35.4910  -33.1550 C   0  0  0  0  0  0  0  0  0  0  0  0
   11.6820  -31.8790  -27.5940 O   0  0  0  0  0  0  0  0  0  0  0  0
   10.1320  -38.5870  -33.9340 C   0  0  0  0  0  0  0  0  0  0  0  0
    5.6950  -32.4640  -32.6280 C   0  0  0  0  0  0  0  0  0  0  0  0
    4.0210  -33.5930  -33.8910 C   0  0  0  0  0  0  0  0  0  0  0  0
    7.0890  -32.3580  -32.1310 C   0  0  1  0  0  0  0  0  0  0  0  0
    5.7180  -31.1370  -30.9840 N   0  0  0  0  0  0  0  0  0  0  0  0
    9.5410  -32.6140  -31.4250 C   0  0  1  0  0  0  0  0  0  0  0  0
   11.4780  -32.9450  -29.6650 C   0  0  0  0  0  0  0  0  0  0  0  0
    8.7150  -34.7700  -34.3190 C   0  0  1  0  0  0  0  0  0  0  0  0
   10.1850  -35.2450  -34.1470 C   0  0  2  0  0  0  0  0  0  0  0  0
    3.5110  -33.2690  -35.3360 C   0  0  0  0  0  0  0  0  0  0  0  0
   12.1650  -32.5020  -28.5870 C   0  0  0  0  0  0  0  0  0  0  0  0
   10.2870  -32.3860  -30.0610 C   0  0  0  0  0  0  0  0  0  0  0  0
    8.3380  -33.4820  -33.6760 N   0  0  0  0  0  0  0  0  0  0  0  0
   10.4640  -37.1390  -34.4350 C   0  0  1  0  0  0  0  0  0  0  0  0
    5.3190  -33.4360  -33.7410 O   0  0  0  0  0  0  0  0  0  0  0  0
   10.5710  -33.2940  -32.4030 C   0  0  0  0  0  0  0  0  0  0  0  0
   11.4270  -34.3460  -31.7430 C   0  0  0  0  0  0  0  0  0  0  0  0
  1  4  2  0
  2 18  1  0
  3  4  1  0
  4 23  1  0
  5 20  1  0
  6 18  1  0
  6  7  2  0
  8 26  1  6
 11 14  1  0
 17 15  1  1
 15  2  2  0
 16 28  1  0
 17  8  1  0
 17  6  1  0
 19  8  1  0
 19 25  1  0
 20 24  1  0
 21 10  1  6
 21 22  1  0
 21 26  1  0
 21 12  1  0
 22  9  1  6
 22 12  1  0
 23 16  1  0
 24 13  2  0
 25 20  2  0
 27  9  1  1
 27 11  1  0
 27 14  1  0
 28 15  1  0
 29 30  1  0
 19 29  1  1
 30  5  1  0
M  END
$$$$

     RDKit          3D

 21 24  0  0  0  0  0  0  0  0999 V2000
    8.4020  -32.5280  -31.1720 C   0  0  0  0  0  0  0  0  0  0  0  0
    8.7310  -35.0920  -33.8300 C   0  0  1  0  0  0  0  0  0  0  0  0
    6.4830  -34.8480  -34.4330 C   0  0  0  0  0  0  0  0  0  0  0  0
    5.9240  -35.0340  -35.5230 C   0  0  0  0  0  0  0  0  0  0  0  0
    8.0870  -35.8120  -35.8830 C   0  0  0  0  0  0  0  0  0  0  0  0
    5.6440  -35.0460  -37.9390 C   0  0  0  0  0  0  0  0  0  0  0  0
   11.7640  -33.7520  -30.4210 C   0  0  0  0  0  0  0  0  0  0  0  0
   10.3880  -33.4020  -30.8820 C   0  0  0  0  0  0  0  0  0  0  0  0
    8.4960  -35.9660  -34.5730 C   0  0  0  0  0  0  0  0  0  0  0  0
    7.9470  -34.0970  -33.5470 C   0  0  2  0  0  0  0  0  0  0  0  0
    4.5410  -35.1170  -35.4310 N   0  0  0  0  0  0  0  0  0  0  0  0
    3.7100  -35.0710  -36.3970 C   0  0  0  0  0  0  0  0  0  0  0  0
    8.4810  -33.4700  -32.2480 C   0  0  1  0  0  0  0  0  0  0  0  0
    4.2940  -34.9320  -37.8240 C   0  0  0  0  0  0  0  0  0  0  0  0
    9.7480  -34.0090  -32.0550 C   0  0  0  0  0  0  0  0  0  0  0  0
    6.5340  -35.4140  -36.8820 C   0  0  0  0  0  0  0  0  0  0  0  0
    9.8890  -35.0440  -32.9580 C   0  0  0  0  0  0  0  0  0  0  0  0
    6.4430  -31.3080  -31.5140 C   0  0  0  0  0  0  0  0  0  0  0  0
    9.5590  -32.4430  -30.4280 N   0  0  0  0  0  0  0  0  0  0  0  0
    6.6540  -33.9610  -33.4820 C   0  0  0  0  0  0  0  0  0  0  0  0
    7.4460  -31.7940  -30.7100 O   0  0  0  0  0  0  0  0  0  0  0  0
  1 21  1  0
  1 19  2  0
  2  9  1  1
  2 10  1  0
  2 17  1  0
  3 20  1  0
  4 11  2  0
  4  3  1  0
  5  9  1  0
  6 14  1  0
  6 16  2  0
  8 19  1  0
  8  7  1  0
 10 20  1  1
 10 13  1  0
 12 11  1  0
 13 15  1  0
 13  1  1  6
 14 12  2  0
 15  8  2  0
 16  5  1  0
 16  4  1  0
 17 15  1  0
 18 21  1  0
M  END
$$$$

     RDKit          3D

 26 31  0  0  0  0  0  0  0  0999 V2000
    5.2060  -34.4130  -35.0670 C   0  0  0  0  0  0  0  0  0  0  0  0
    8.2410  -34.0490  -33.0110 N   0  0  0  0  0  0  0  0  0  0  0  0
    3.8650  -34.0920  -35.4430 C   0  0  0  0  0  0  0  0  0  0  0  0
    5.2890  -36.0500  -36.9060 C   0  0  0  0  0  0  0  0  0  0  0  0
    6.9810  -36.0420  -35.4690 N   0  0  0  0  0  0  0  0  0  0  0  0
    6.8320  -32.1740  -32.5750 C   0  0  0  0  0  0  0  0  0  0  0  0
   12.7030  -33.7390  -32.6740 C   0  0  0  0  0  0  0  0  0  0  0  0
    9.2940  -34.9830  -32.9980 C   0  0  0  0  0  0  0  0  0  0  0  0
    3.2790  -34.8230  -36.4910 C   0  0  0  0  0  0  0  0  0  0  0  0
   12.1700  -32.8270  -28.9920 C   0  0  0  0  0  0  0  0  0  0  0  0
    8.0520  -32.8740  -32.3980 C   0  0  0  0  0  0  0  0  0  0  0  0
    7.6730  -35.5010  -34.4810 C   0  0  0  0  0  0  0  0  0  0  0  0
   11.6620  -34.2910  -33.4180 C   0  0  0  0  0  0  0  0  0  0  0  0
    3.9510  -35.7750  -37.1500 C   0  0  0  0  0  0  0  0  0  0  0  0
    7.2860  -34.3000  -33.8670 C   0  0  0  0  0  0  0  0  0  0  0  0
   10.8480  -33.7050  -31.3350 C   0  0  0  0  0  0  0  0  0  0  0  0
   12.2060  -33.4860  -31.3420 C   0  0  1  0  0  0  0  0  0  0  0  0
    3.0130  -33.0730  -34.7680 C   0  0  0  0  0  0  0  0  0  0  0  0
   10.0870  -33.3110  -30.1900 C   0  0  0  0  0  0  0  0  0  0  0  0
    5.8610  -35.4720  -35.7960 C   0  0  0  0  0  0  0  0  0  0  0  0
    8.9120  -35.9110  -33.9650 C   0  0  0  0  0  0  0  0  0  0  0  0
   10.5790  -34.3370  -32.6280 C   0  0  0  0  0  0  0  0  0  0  0  0
   12.9110  -33.1390  -30.1750 C   0  0  0  0  0  0  0  0  0  0  0  0
    5.8420  -32.5420  -33.3990 C   0  0  0  0  0  0  0  0  0  0  0  0
    6.0720  -33.7530  -34.1220 C   0  0  0  0  0  0  0  0  0  0  0  0
   10.7580  -32.8830  -29.0280 C   0  0  0  0  0  0  0  0  0  0  0  0
  1 25  1  0
  2  8  1  0
  2 11  1  0
  3  1  2  0
  3 18  1  0
  4 20  1  0
  5 12  1  0
  6 11  2  0
  8 22  1  0
  9  3  1  0
 12 21  1  0
 12 15  2  0
 13  7  2  0
 13 22  1  0
 14  4  1  0
 14  9  2  0
 15  2  1  0
 16 19  1  0
 17  7  1  1
 17 16  1  0
 17 23  1  0
 19 26  2  0
 20  5  2  0
 20  1  1  0
 21  8  2  0
 22 16  2  0
 23 10  2  0
 24  6  1  0
 25 15  1  0
 25 24  2  0
 26 10  1  0
M  END
$$$$

     RDKit          3D

 19 23  0  0  0  0  0  0  0  0999 V2000
   11.5210  -33.8280  -32.5130 C   0  0  0  0  0  0  0  0  0  0  0  0
    7.4870  -31.7120  -30.8640 C   0  0  0  0  0  0  0  0  0  0  0  0
    9.7180  -33.0640  -31.7030 C   0  0  2  0  0  0  0  0  0  0  0  0
    6.4970  -33.8680  -33.6700 C   0  0  0  0  0  0  0  0  0  0  0  0
    9.6870  -34.3110  -33.7140 C   0  0  0  0  0  0  0  0  0  0  0  0
    5.6620  -32.1520  -32.2280 C   0  0  0  0  0  0  0  0  0  0  0  0
    8.3520  -32.4840  -31.6120 C   0  0  0  0  0  0  0  0  0  0  0  0
   11.8590  -35.0220  -34.5280 O   0  0  0  0  0  0  0  0  0  0  0  0
    7.9550  -35.2650  -35.3510 C   0  0  2  0  0  0  0  0  0  0  0  0
    9.4920  -34.8500  -34.8360 C   0  0  0  0  0  0  0  0  0  0  0  0
    6.4930  -32.9610  -32.9620 C   0  0  1  0  0  0  0  0  0  0  0  0
   10.8230  -34.4270  -33.6770 C   0  0  0  0  0  0  0  0  0  0  0  0
   10.8110  -33.2030  -31.7830 C   0  0  0  0  0  0  0  0  0  0  0  0
    6.7680  -34.8290  -36.1040 O   0  0  0  0  0  0  0  0  0  0  0  0
    7.7060  -35.1330  -33.9970 C   0  0  1  0  0  0  0  0  0  0  0  0
    5.5040  -34.2110  -34.1630 O   0  0  0  0  0  0  0  0  0  0  0  0
    6.1720  -31.4820  -31.2550 C   0  0  0  0  0  0  0  0  0  0  0  0
    7.9740  -32.8730  -32.7390 C   0  0  2  0  0  0  0  0  0  0  0  0
    8.7550  -33.9630  -32.9970 C   0  0  1  0  0  0  0  0  0  0  0  0
  1 13  2  0
  3 13  1  6
  3  7  1  0
  4 11  1  0
  5 12  2  0
  6 17  2  0
  7  2  2  0
  8 12  1  0
  9 14  1  6
  9 10  1  0
  9 15  1  0
 10  5  1  0
 11 18  1  0
 11  6  1  1
 12  1  1  0
 15  4  1  6
 15 19  1  0
 16  4  2  0
 17  2  1  0
 18  7  1  1
 19  5  1  6
 19 18  1  0
 19  3  1  0
M  END
$$$$

     RDKit          3D

 35 42  0  0  0  0  0  0  0  0999 V2000
    8.1160  -35.4710  -34.9580 N   0  0  0  0  0  0  0  0  0  0  0  0
   10.6570  -34.7870  -32.5020 C   0  0  0  0  0  0  0  0  0  0  0  0
   10.9450  -37.4230  -34.3400 O   0  0  0  0  0  0  0  0  0  0  0  0
    7.3910  -32.9130  -32.9060 C   0  0  0  0  0  0  0  0  0  0  0  0
   12.6260  -32.8500  -30.2760 N   0  0  0  0  0  0  0  0  0  0  0  0
    3.9750  -34.4780  -36.1350 C   0  0  2  0  0  0  0  0  0  0  0  0
   12.3360  -35.2970  -34.6520 C   0  0  0  0  0  0  0  0  0  0  0  0
    6.1540  -36.7150  -36.0540 C   0  0  0  0  0  0  0  0  0  0  0  0
    5.2320  -33.8860  -38.3180 C   0  0  0  0  0  0  0  0  0  0  0  0
   12.0620  -32.9420  -28.9050 N   0  0  0  0  0  0  0  0  0  0  0  0
    6.9920  -35.2550  -38.0240 C   0  0  0  0  0  0  0  0  0  0  0  0
   10.0960  -35.1940  -33.6600 C   0  0  1  0  0  0  0  0  0  0  0  0
   12.2890  -33.6760  -32.3800 C   0  0  0  0  0  0  0  0  0  0  0  0
    4.6170  -34.5050  -34.8180 C   0  0  1  0  0  0  0  0  0  0  0  0
    8.8990  -34.5100  -34.2060 C   0  0  0  0  0  0  0  0  0  0  0  0
    7.1270  -31.9240  -32.0050 C   0  0  0  0  0  0  0  0  0  0  0  0
   11.4150  -34.6380  -33.4630 C   0  0  1  0  0  0  0  0  0  0  0  0
   10.0280  -36.5090  -34.2790 C   0  0  0  0  0  0  0  0  0  0  0  0
    8.9430  -36.7260  -34.7140 N   0  0  0  0  0  0  0  0  0  0  0  0
    3.4710  -35.3410  -37.0790 C   0  0  0  0  0  0  0  0  0  0  0  0
    5.9160  -34.7980  -34.3820 C   0  0  1  0  0  0  0  0  0  0  0  0
    4.7950  -32.0800  -32.2670 C   0  0  0  0  0  0  0  0  0  0  0  0
    5.9910  -35.6910  -37.1150 C   0  0  2  0  0  0  0  0  0  0  0  0
    4.9630  -33.1630  -33.2030 C   0  0  0  0  0  0  0  0  0  0  0  0
    4.0900  -33.7480  -33.8900 N   0  0  0  0  0  0  0  0  0  0  0  0
   12.4140  -32.6620  -27.7040 C   0  0  0  0  0  0  0  0  0  0  0  0
    3.6040  -31.7880  -31.9820 O   0  0  0  0  0  0  0  0  0  0  0  0
    6.6100  -34.1490  -38.6280 N   0  0  0  0  0  0  0  0  0  0  0  0
    6.8370  -36.0520  -34.8700 C   0  0  2  0  0  0  0  0  0  0  0  0
   11.8430  -33.3400  -31.2850 C   0  0  0  0  0  0  0  0  0  0  0  0
    5.9320  -31.5570  -31.6380 N   0  0  0  0  0  0  0  0  0  0  0  0
    4.8140  -34.8440  -37.3070 C   0  0  2  0  0  0  0  0  0  0  0  0
   10.7500  -32.9820  -29.1030 N   0  0  0  0  0  0  0  0  0  0  0  0
    6.2620  -33.6600  -33.4490 C   0  0  0  0  0  0  0  0  0  0  0  0
   10.7420  -33.3410  -30.2510 C   0  0  0  0  0  0  0  0  0  0  0  0
 29  1  1  6
  1 19  1  0
  1 15  1  0
  3 18  2  0
  4 16  1  0
  5 10  1  0
  6 20  1  1
  6 14  1  0
 10 26  1  0
 12 15  1  6
 12 17  1  0
 12  2  1  0
 13 30  1  0
 14 21  1  0
 14 25  1  6
 16 31  2  0
 17  7  1  1
 17  2  1  0
 17 13  1  0
 18 12  1  0
 19 18  1  0
 21 34  1  6
 22 27  2  0
 22 31  1  0
 23 11  1  0
 23  8  1  1
 24 22  1  0
 25 24  1  0
 28  9  1  0
 28 11  2  0
 29  8  1  0
 29 21  1  0
 30  5  1  0
 30 35  2  0
 32  9  1  6
 32 23  1  0
 32 20  1  0
 32  6  1  0
 33 10  1  0
 34 24  2  0
 34  4  1  0
 35 33  1  0
M  END
$$$$

     RDKit          3D

 35 41  0  0  0  0  0  0  0  0999 V2000
    5.3530  -33.2230  -33.4340 C   0  0  0  0  0  0  0  0  0  0  0  0
    2.0370  -34.6050  -36.1130 O   0  0  0  0  0  0  0  0  0  0  0  0
   11.4630  -32.7940  -30.0210 C   0  0  0  0  0  0  0  0  0  0  0  0
    5.1440  -35.6700  -37.2710 C   0  0  1  0  0  0  0  0  0  0  0  0
    5.0390  -34.2600  -37.6340 C   0  0  0  0  0  0  0  0  0  0  0  0
    6.6680  -33.9010  -33.5360 C   0  0  0  0  0  0  0  0  0  0  0  0
   10.4680  -34.0580  -32.4020 C   0  0  1  0  0  0  0  0  0  0  0  0
    4.7940  -34.7060  -35.0890 C   0  0  0  0  0  0  0  0  0  0  0  0
    3.0960  -34.8040  -36.4920 C   0  0  0  0  0  0  0  0  0  0  0  0
   10.2210  -32.7860  -30.2900 N   0  0  0  0  0  0  0  0  0  0  0  0
    4.5590  -35.2660  -35.7040 C   0  0  2  0  0  0  0  0  0  0  0  0
   12.2710  -33.4140  -30.9840 C   0  0  0  0  0  0  0  0  0  0  0  0
    6.1930  -35.1840  -35.4930 C   0  0  0  0  0  0  0  0  0  0  0  0
   11.9250  -37.5880  -34.7070 C   0  0  0  0  0  0  0  0  0  0  0  0
    4.2010  -36.2770  -36.3490 C   0  0  0  0  0  0  0  0  0  0  0  0
    5.1590  -32.3440  -32.5920 O   0  0  0  0  0  0  0  0  0  0  0  0
    8.6440  -34.8690  -32.8790 O   0  0  0  0  0  0  0  0  0  0  0  0
    7.9410  -33.6070  -32.9580 C   0  0  0  0  0  0  0  0  0  0  0  0
    9.9260  -34.7090  -33.3660 C   0  0  2  0  0  0  0  0  0  0  0  0
   10.7780  -37.9280  -34.2310 C   0  0  0  0  0  0  0  0  0  0  0  0
    6.9870  -34.6910  -34.5780 N   0  0  0  0  0  0  0  0  0  0  0  0
   10.1450  -36.9050  -33.8710 C   0  0  0  0  0  0  0  0  0  0  0  0
   12.8930  -37.8490  -35.0020 O   0  0  0  0  0  0  0  0  0  0  0  0
   11.7770  -33.8340  -32.0900 C   0  0  0  0  0  0  0  0  0  0  0  0
    7.8290  -32.4140  -31.9260 N   0  0  0  0  0  0  0  0  0  0  0  0
    8.6680  -37.1270  -33.8940 C   0  0  0  0  0  0  0  0  0  0  0  0
   10.7340  -35.7220  -33.7640 C   0  0  0  0  0  0  0  0  0  0  0  0
   12.5840  -36.7210  -34.8410 C   0  0  0  0  0  0  0  0  0  0  0  0
    6.5300  -35.8960  -36.7270 C   0  0  0  0  0  0  0  0  0  0  0  0
    5.4960  -31.7300  -31.4780 C   0  0  0  0  0  0  0  0  0  0  0  0
    3.4900  -34.4700  -38.1740 C   0  0  0  0  0  0  0  0  0  0  0  0
    9.6140  -33.3320  -31.5590 C   0  0  0  0  0  0  0  0  0  0  0  0
    4.4340  -33.7340  -34.0690 C   0  0  0  0  0  0  0  0  0  0  0  0
   11.8620  -35.5710  -34.3920 C   0  0  0  0  0  0  0  0  0  0  0  0
    6.9880  -31.6610  -31.5260 C   0  0  0  0  0  0  0  0  0  0  0  0
  1 16  1  0
  4  5  1  1
  4 29  1  0
  4 15  1  0
  4 11  1  0
  6  1  2  0
  6 18  1  0
  7 19  1  0
  7 24  1  6
  7 32  1  0
  8 33  2  0
  9  2  2  0
 10  3  1  0
 11 15  1  1
 11  8  1  0
 12  3  1  0
 13  8  1  0
 13 21  2  0
 14 20  2  0
 16 30  1  0
 18 17  1  0
 18 25  2  0
 19 17  1  1
 20 22  1  0
 21  6  1  0
 22 27  2  0
 23 28  1  0
 23 14  1  0
 24 12  1  0
 25 35  1  0
 26 22  1  0
 27 19  1  0
 28 14  1  0
 28 34  2  0
 29 13  1  0
 31  5  1  0
 31  9  1  0
 32 10  2  0
 33  1  1  0
 34 27  1  0
 35 30  1  0
M  END
$$$$

     RDKit          3D

 15 15  0  0  0  0  0  0  0  0999 V2000
    9.6080  -33.2540  -31.5690 C   0  0  2  0  0  0  0  0  0  0  0  0
    6.4200  -35.3070  -34.7770 C   0  0  0  0  0  0  0  0  0  0  0  0
    7.1480  -36.2730  -34.9900 N   0  0  0  0  0  0  0  0  0  0  0  0
    8.2320  -36.4610  -34.6280 C   0  0  0  0  0  0  0  0  0  0  0  0
    8.0820  -34.1180  -33.3500 C   0  0  0  0  0  0  0  0  0  0  0  0
    9.2240  -34.9940  -33.7140 C   0  0  0  0  0  0  0  0  0  0  0  0
    8.4410  -33.3000  -32.2340 C   0  0  0  0  0  0  0  0  0  0  0  0
    6.5200  -32.1960  -32.8930 O   0  0  0  0  0  0  0  0  0  0  0  0
    4.9580  -35.0370  -35.4150 C   0  0  0  0  0  0  0  0  0  0  0  0
   10.4790  -32.8460  -32.1710 F   0  0  0  0  0  0  0  0  0  0  0  0
    9.2010  -36.0270  -34.0670 C   0  0  0  0  0  0  0  0  0  0  0  0
    6.9030  -34.3900  -33.9540 N   0  0  0  0  0  0  0  0  0  0  0  0
   10.3810  -34.9910  -33.0160 C   0  0  0  0  0  0  0  0  0  0  0  0
    7.2300  -32.5130  -31.7320 C   0  0  0  0  0  0  0  0  0  0  0  0
    9.7690  -33.7500  -30.5920 F   0  0  0  0  0  0  0  0  0  0  0  0
  1 15  1  6
  2 12  1  0
  3  2  2  0
  3  4  1  0
  4 11  2  0
  5  7  2  3
  6  5  1  0
  6 13  2  0
  7 14  1  0
  7  1  1  0
  8 14  1  0
  9  2  1  0
 10  1  1  0
 11  6  1  0
 12  5  1  0
M  END
$$$$

     RDKit          3D

 28 32  0  0  0  0  0  0  0  0999 V2000
   12.0600  -33.7600  -31.9940 C   0  0  0  0  0  0  0  0  0  0  0  0
    4.1040  -32.2210  -31.9880 C   0  0  1  0  0  0  0  0  0  0  0  0
    3.4980  -33.0680  -33.6890 C   0  0  2  0  0  0  0  0  0  0  0  0
    2.8110  -31.7220  -32.0720 C   0  0  0  0  0  0  0  0  0  0  0  0
   12.3370  -33.1990  -29.5930 C   0  0  0  0  0  0  0  0  0  0  0  0
   12.6500  -33.8220  -33.6940 C   0  0  0  0  0  0  0  0  0  0  0  0
    3.1440  -34.0630  -35.0390 C   0  0  0  0  0  0  0  0  0  0  0  0
    7.8420  -32.6910  -32.5130 C   0  0  0  0  0  0  0  0  0  0  0  0
    5.5960  -33.2310  -33.1990 C   0  0  1  0  0  0  0  0  0  0  0  0
    6.4830  -32.4640  -32.6100 C   0  0  1  0  0  0  0  0  0  0  0  0
   10.1730  -37.3940  -33.4610 C   0  0  0  0  0  0  0  0  0  0  0  0
    8.4420  -31.8370  -31.8220 O   0  0  0  0  0  0  0  0  0  0  0  0
    4.3070  -33.0280  -33.1660 C   0  0  1  0  0  0  0  0  0  0  0  0
   11.1230  -32.7280  -29.3140 C   0  0  0  0  0  0  0  0  0  0  0  0
    2.1580  -32.4390  -33.1160 C   0  0  0  0  0  0  0  0  0  0  0  0
    9.6820  -36.1610  -33.3130 C   0  0  1  0  0  0  0  0  0  0  0  0
   10.2230  -32.5520  -30.3020 C   0  0  0  0  0  0  0  0  0  0  0  0
    7.7890  -34.5320  -33.7770 C   0  0  0  0  0  0  0  0  0  0  0  0
    3.9270  -35.1750  -35.5520 O   0  0  0  0  0  0  0  0  0  0  0  0
   10.9660  -34.0670  -32.1570 C   0  0  0  0  0  0  0  0  0  0  0  0
    8.4850  -33.7730  -32.9570 N   0  0  0  0  0  0  0  0  0  0  0  0
   11.5930  -34.9340  -34.1120 C   0  0  0  0  0  0  0  0  0  0  0  0
   10.0800  -33.2210  -31.3640 C   0  0  0  0  0  0  0  0  0  0  0  0
    6.5140  -34.2540  -34.0490 C   0  0  0  0  0  0  0  0  0  0  0  0
   12.6940  -33.7600  -30.7370 C   0  0  0  0  0  0  0  0  0  0  0  0
   10.4810  -35.0280  -33.1700 N   0  0  0  0  0  0  0  0  0  0  0  0
    5.6670  -31.5020  -31.4940 S   0  0  0  0  0  0  0  0  0  0  0  0
    8.6210  -35.6650  -34.3440 C   0  0  0  0  0  0  0  0  0  0  0  0
  1 25  1  0
  2  4  1  6
  2 27  1  0
  3  7  1  1
 13  3  1  6
  3 15  1  0
  5 14  2  0
  6  1  1  0
  8 12  2  0
  9 24  1  6
  9 13  1  0
  9 10  1  0
 10  8  1  0
 10 27  1  1
 16 11  1  6
 13  2  1  0
 15  4  1  0
 16 26  1  0
 17 14  1  0
 18 21  2  0
 19  7  1  0
 20  1  2  0
 20 23  1  0
 21  8  1  0
 22  6  1  0
 22 26  1  0
 23 17  2  0
 24 18  1  0
 25  5  1  0
 26 20  1  0
 28 18  1  0
 28 16  1  0
M  END
$$$$

     RDKit          3D

 37 43  0  0  0  0  0  0  0  0999 V2000
    4.8390  -35.2420  -35.5360 C   0  0  0  0  0  0  0  0  0  0  0  0
    7.8600  -35.3720  -35.7210 O   0  0  0  0  0  0  0  0  0  0  0  0
    5.9990  -33.7750  -32.7440 C   0  0  2  0  0  0  0  0  0  0  0  0
    8.4020  -33.6930  -34.5710 F   0  0  0  0  0  0  0  0  0  0  0  0
    5.4280  -31.2590  -30.7690 C   0  0  0  0  0  0  0  0  0  0  0  0
    4.4270  -32.5840  -30.6600 C   0  0  0  0  0  0  0  0  0  0  0  0
    5.8130  -31.3310  -32.2240 C   0  0  2  0  0  0  0  0  0  0  0  0
    4.6260  -33.8200  -33.3880 C   0  0  1  0  0  0  0  0  0  0  0  0
    4.9600  -32.6730  -32.4880 C   0  0  1  0  0  0  0  0  0  0  0  0
   12.6280  -32.9640  -31.8930 C   0  0  0  0  0  0  0  0  0  0  0  0
    2.0100  -32.1520  -32.2990 O   0  0  0  0  0  0  0  0  0  0  0  0
   10.2090  -34.4090  -31.4380 C   0  0  1  0  0  0  0  0  0  0  0  0
    5.3140  -33.0220  -35.0320 O   0  0  0  0  0  0  0  0  0  0  0  0
    7.0020  -31.6260  -32.7560 C   0  0  0  0  0  0  0  0  0  0  0  0
    8.4090  -33.4630  -32.2580 O   0  0  0  0  0  0  0  0  0  0  0  0
   11.6360  -33.7840  -29.9420 C   0  0  0  0  0  0  0  0  0  0  0  0
    6.5100  -35.0650  -34.0340 O   0  0  0  0  0  0  0  0  0  0  0  0
    3.2490  -33.3410  -34.3660 O   0  0  0  0  0  0  0  0  0  0  0  0
   10.4330  -33.6880  -32.3350 C   0  0  2  0  0  0  0  0  0  0  0  0
    9.0880  -35.5550  -35.5170 C   0  0  0  0  0  0  0  0  0  0  0  0
   11.5550  -32.7410  -32.3590 C   0  0  0  0  0  0  0  0  0  0  0  0
    4.2170  -33.1700  -34.2520 C   0  0  0  0  0  0  0  0  0  0  0  0
    8.4110  -36.2840  -32.9070 F   0  0  0  0  0  0  0  0  0  0  0  0
   10.6020  -37.3960  -33.8580 O   0  0  0  0  0  0  0  0  0  0  0  0
   10.5130  -34.3910  -30.1700 C   0  0  0  0  0  0  0  0  0  0  0  0
   10.6770  -36.1020  -32.9050 C   0  0  0  0  0  0  0  0  0  0  0  0
   12.5890  -33.2720  -30.6940 C   0  0  0  0  0  0  0  0  0  0  0  0
    5.6760  -34.5580  -34.9550 C   0  0  1  0  0  0  0  0  0  0  0  0
    4.1710  -32.7660  -31.9080 C   0  0  2  0  0  0  0  0  0  0  0  0
    7.8050  -34.8680  -34.4560 C   0  0  1  0  0  0  0  0  0  0  0  0
    2.8980  -30.4740  -31.2890 O   0  0  0  0  0  0  0  0  0  0  0  0
    5.9450  -35.2400  -36.4340 C   0  0  0  0  0  0  0  0  0  0  0  0
    9.3880  -35.4700  -32.9750 C   0  0  2  0  0  0  0  0  0  0  0  0
    7.3720  -33.1250  -33.0710 C   0  0  1  0  0  0  0  0  0  0  0  0
    9.6650  -36.6870  -34.9970 C   0  0  0  0  0  0  0  0  0  0  0  0
    9.3970  -34.2350  -32.5830 C   0  0  1  0  0  0  0  0  0  0  0  0
    2.8990  -31.5960  -31.9320 C   0  0  0  0  0  0  0  0  0  0  0  0
 28  1  1  1
  2 20  1  0
  2 30  1  0
  3  9  1  0
 30  4  1  6
  5  6  1  0
  7  5  1  1
  8  3  1  0
  8  9  1  0
  9  7  1  0
  9 29  1  1
 10 27  1  0
 11 37  2  0
 12 25  1  1
 13 28  1  0
 13 22  1  0
 14  7  1  0
 18 22  2  0
 19 12  1  0
 20 35  1  0
 19 21  1  1
 21 10  1  0
  8 22  1  6
 24 26  1  0
 25 16  1  0
 27 16  1  0
 28 17  1  0
 29  6  1  0
 30 17  1  0
 32  1  1  0
 32 28  1  0
 33 23  1  1
 33 26  1  0
 33 36  1  0
 34 14  1  1
  3 34  1  6
 34 15  1  0
 35 24  1  0
 36 19  1  0
 36 15  1  6
 36 12  1  0
 29 37  1  6
 37 31  1  0
M  END
$$$$

     RDKit          3D

 18 18  0  0  0  0  0  0  0  0999 V2000
    9.7600  -35.0770  -32.5990 C   0  0  0  0  0  0  0  0  0  0  0  0
   10.4990  -36.0840  -34.3010 C   0  0  0  0  0  0  0  0  0  0  0  0
    8.7200  -35.3250  -34.0050 C   0  0  0  0  0  0  0  0  0  0  0  0
    6.9080  -32.3190  -32.8010 C   0  0  1  0  0  0  0  0  0  0  0  0
   11.7930  -35.4620  -34.0250 C   0  0  0  0  0  0  0  0  0  0  0  0
    5.1440  -31.7000  -31.6040 O   0  0  0  0  0  0  0  0  0  0  0  0
   10.6240  -34.6880  -33.5540 C   0  0  0  0  0  0  0  0  0  0  0  0
    9.5030  -36.3440  -33.3190 C   0  0  0  0  0  0  0  0  0  0  0  0
    6.3770  -31.9650  -31.6320 N   0  0  0  0  0  0  0  0  0  0  0  0
    4.9900  -33.7750  -33.7020 C   0  0  0  0  0  0  0  0  0  0  0  0
    8.0090  -33.2070  -32.8180 C   0  0  0  0  0  0  0  0  0  0  0  0
    6.1690  -33.1380  -33.5610 C   0  0  0  0  0  0  0  0  0  0  0  0
    7.0840  -31.8850  -30.6630 O   0  0  0  0  0  0  0  0  0  0  0  0
    8.4190  -34.5660  -33.7700 C   0  0  0  0  0  0  0  0  0  0  0  0
    9.1100  -33.6560  -32.2890 C   0  0  2  0  0  0  0  0  0  0  0  0
   10.2440  -34.2590  -32.4880 C   0  0  1  0  0  0  0  0  0  0  0  0
    8.2730  -34.0890  -33.5090 C   0  0  0  0  0  0  0  0  0  0  0  0
    9.3750  -33.0920  -31.5440 C   0  0  0  0  0  0  0  0  0  0  0  0
  1 16  1  0
  2  5  1  0
  2  8  1  0
  3 14  3  0
  4 12  1  0
  4  9  1  0
  8  1  1  0
  9  6  1  0
  9 13  2  0
 10 12  2  0
  4 11  1  1
 11 15  1  0
 15 18  1  1
 16  7  1  6
 16 15  1  0
 17 14  1  0
 17 11  1  0
 17 15  1  0
M  CHG  2   6  -1   9   1
M  END
$$$$

     RDKit          3D

 29 34  0  0  0  0  0  0  0  0999 V2000
    9.8850  -36.2960  -34.8070 C   0  0  0  0  0  0  0  0  0  0  0  0
   10.7310  -32.9180  -28.8920 C   0  0  0  0  0  0  0  0  0  0  0  0
   11.9560  -33.2360  -29.5710 C   0  0  0  0  0  0  0  0  0  0  0  0
    8.1380  -32.4320  -31.6210 O   0  0  0  0  0  0  0  0  0  0  0  0
    5.2640  -35.7710  -36.3710 C   0  0  0  0  0  0  0  0  0  0  0  0
   10.2260  -37.3800  -33.9060 O   0  0  0  0  0  0  0  0  0  0  0  0
    5.8880  -31.8100  -32.0850 C   0  0  0  0  0  0  0  0  0  0  0  0
   11.3420  -34.2060  -33.0430 C   0  0  0  0  0  0  0  0  0  0  0  0
    5.3470  -34.1090  -34.7350 N   0  0  0  0  0  0  0  0  0  0  0  0
    5.0280  -33.4570  -33.4910 C   0  0  1  0  0  0  0  0  0  0  0  0
    4.3750  -34.9870  -35.2710 C   0  0  0  0  0  0  0  0  0  0  0  0
    7.8880  -35.0130  -33.8350 C   0  0  2  0  0  0  0  0  0  0  0  0
    8.3780  -33.2000  -32.2040 C   0  0  0  0  0  0  0  0  0  0  0  0
    9.2760  -35.0120  -34.2420 C   0  0  1  0  0  0  0  0  0  0  0  0
    3.5880  -31.9690  -32.1550 C   0  0  0  0  0  0  0  0  0  0  0  0
    6.2710  -32.9670  -32.8060 C   0  0  0  0  0  0  0  0  0  0  0  0
    4.7460  -31.4460  -31.6030 C   0  0  0  0  0  0  0  0  0  0  0  0
   11.5040  -33.2830  -30.8620 C   0  0  2  0  0  0  0  0  0  0  0  0
   11.9080  -34.1390  -34.2070 O   0  0  0  0  0  0  0  0  0  0  0  0
    9.3590  -33.7220  -32.0060 C   0  0  1  0  0  0  0  0  0  0  0  0
   13.2020  -33.2320  -32.3230 O   0  0  0  0  0  0  0  0  0  0  0  0
    6.6390  -34.7700  -34.7850 C   0  0  1  0  0  0  0  0  0  0  0  0
    7.4570  -33.7090  -33.0250 C   0  0  0  0  0  0  0  0  0  0  0  0
   10.0820  -34.8280  -32.8240 C   0  0  2  0  0  0  0  0  0  0  0  0
    6.6870  -35.5310  -36.0780 C   0  0  0  0  0  0  0  0  0  0  0  0
    3.7880  -32.7210  -33.2280 C   0  0  0  0  0  0  0  0  0  0  0  0
   10.1760  -33.2570  -30.9890 C   0  0  0  0  0  0  0  0  0  0  0  0
   12.0760  -33.5770  -32.1100 C   0  0  0  0  0  0  0  0  0  0  0  0
    9.7470  -32.6590  -29.9530 O   0  0  0  0  0  0  0  0  0  0  0  0
  1  6  1  0
  3  2  1  0
  5 25  1  0
  5 11  1  0
  7 17  1  0
  8 19  1  0
 24  8  1  6
  8 28  1  0
  9 11  1  0
  9 10  1  0
 10 26  1  6
 10 16  1  0
 12 23  1  1
 13  4  2  0
 14  1  1  1
 14 12  1  0
 14 24  1  0
 15 17  1  0
 16  7  1  0
 18  3  1  1
 20 13  1  0
 20 27  1  6
 21 28  2  0
 22 25  1  1
 22  9  1  0
 22 12  1  0
 23 16  2  0
 23 13  1  0
 24 20  1  0
 26 15  1  0
 27 18  1  0
 27 29  1  0
 28 18  1  0
 29  2  1  0
M  END
$$$$

     RDKit          3D

 24 28  0  0  0  0  0  0  0  0999 V2000
    5.5500  -34.7300  -35.3380 C   0  0  0  0  0  0  0  0  0  0  0  0
    8.6280  -33.6410  -32.8330 C   0  0  0  0  0  0  0  0  0  0  0  0
    9.2380  -33.0650  -31.8270 C   0  0  2  0  0  0  0  0  0  0  0  0
    7.2700  -35.6960  -35.4860 C   0  0  0  0  0  0  0  0  0  0  0  0
   11.0250  -34.3710  -31.7810 C   0  0  2  0  0  0  0  0  0  0  0  0
    9.3160  -35.8830  -34.5370 C   0  0  0  0  0  0  0  0  0  0  0  0
    8.8860  -32.7510  -30.6880 F   0  0  0  0  0  0  0  0  0  0  0  0
    3.2930  -34.4650  -38.1790 C   0  0  0  0  0  0  0  0  0  0  0  0
    8.4050  -32.0270  -31.6910 C   0  0  0  0  0  0  0  0  0  0  0  0
    6.3820  -32.8510  -33.0640 C   0  0  0  0  0  0  0  0  0  0  0  0
   10.4870  -35.1410  -32.8530 C   0  0  1  0  0  0  0  0  0  0  0  0
    6.6120  -36.3680  -36.2350 O   0  0  0  0  0  0  0  0  0  0  0  0
    4.6770  -35.1630  -37.7810 C   0  0  0  0  0  0  0  0  0  0  0  0
    6.2170  -31.4630  -31.1870 F   0  0  0  0  0  0  0  0  0  0  0  0
    6.8020  -32.2080  -31.9160 C   0  0  2  0  0  0  0  0  0  0  0  0
    8.4160  -33.9910  -33.5700 C   0  0  1  0  0  0  0  0  0  0  0  0
   10.7700  -33.0120  -31.5970 C   0  0  0  0  0  0  0  0  0  0  0  0
    8.4040  -36.1570  -35.4410 C   0  0  0  0  0  0  0  0  0  0  0  0
    5.4630  -34.3190  -36.8150 C   0  0  0  0  0  0  0  0  0  0  0  0
    9.1390  -35.0890  -33.5230 C   0  0  1  0  0  0  0  0  0  0  0  0
    7.5840  -33.8220  -33.6510 C   0  0  0  0  0  0  0  0  0  0  0  0
   11.4830  -34.6560  -32.9230 O   0  0  0  0  0  0  0  0  0  0  0  0
    6.8530  -34.5300  -34.5120 C   0  0  1  0  0  0  0  0  0  0  0  0
    5.5530  -33.4740  -33.7760 C   0  0  0  0  0  0  0  0  0  0  0  0
  2  3  1  0
  3  9  1  0
  3 17  1  0
  3  7  1  1
  4 18  1  0
  4 23  1  0
  5 17  1  6
  8 13  1  0
 10 15  1  0
 11 22  1  6
 11  5  1  0
 12  4  2  0
 13 19  1  0
 15  9  1  0
 15 14  1  6
 16 20  1  0
 16  2  1  1
 18  6  2  0
 19  1  1  0
 20  6  1  6
 20 11  1  0
 21 16  1  0
 21 10  2  0
 22  5  1  0
 23  1  1  6
 23 24  1  0
 23 21  1  0
 24 10  1  0
M  END
$$$$

     RDKit          3D

 30 39  0  0  0  0  0  0  0  0999 V2000
    6.5980  -31.7100  -32.6410 C   0  0  0  0  0  0  0  0  0  0  0  0
   10.4750  -34.4320  -33.8560 C   0  0  1  0  0  0  0  0  0  0  0  0
    5.0200  -35.4530  -36.8100 C   0  0  1  0  0  0  0  0  0  0  0  0
   11.8910  -33.1350  -29.5440 C   0  0  0  0  0  0  0  0  0  0  0  0
   10.6030  -33.3870  -29.9690 C   0  0  0  0  0  0  0  0  0  0  0  0
    9.1840  -34.9890  -34.6330 C   0  0  2  0  0  0  0  0  0  0  0  0
    5.8020  -33.5330  -34.0450 C   0  0  0  0  0  0  0  0  0  0  0  0
    6.0010  -34.7530  -37.6510 C   0  0  0  0  0  0  0  0  0  0  0  0
    5.4260  -34.1820  -36.5280 C   0  0  2  0  0  0  0  0  0  0  0  0
    5.7420  -34.5150  -34.8810 C   0  0  1  0  0  0  0  0  0  0  0  0
    7.3330  -32.3280  -32.9180 C   0  0  1  0  0  0  0  0  0  0  0  0
    2.3890  -36.0110  -36.9800 O   0  0  0  0  0  0  0  0  0  0  0  0
    6.7340  -35.3940  -35.2360 O   0  0  0  0  0  0  0  0  0  0  0  0
    3.7660  -35.8160  -36.9420 C   0  0  1  0  0  0  0  0  0  0  0  0
    7.8180  -34.9190  -34.3230 C   0  0  0  0  0  0  0  0  0  0  0  0
   12.7300  -33.4100  -30.5280 N   0  0  0  0  0  0  0  0  0  0  0  0
    6.7360  -31.2220  -31.3060 C   0  0  0  0  0  0  0  0  0  0  0  0
   12.3020  -32.6530  -28.1890 C   0  0  0  0  0  0  0  0  0  0  0  0
    9.3130  -33.6170  -32.1710 C   0  0  0  0  0  0  0  0  0  0  0  0
   10.5960  -35.5760  -33.9690 C   0  0  0  0  0  0  0  0  0  0  0  0
   10.5490  -33.5420  -31.5720 C   0  0  1  0  0  0  0  0  0  0  0  0
    9.0340  -34.6740  -32.9370 C   0  0  1  0  0  0  0  0  0  0  0  0
    7.8290  -31.9590  -31.0140 C   0  0  0  0  0  0  0  0  0  0  0  0
   11.0020  -34.0700  -32.6200 C   0  0  0  0  0  0  0  0  0  0  0  0
    8.7340  -32.5760  -31.8530 C   0  0  2  0  0  0  0  0  0  0  0  0
    9.8090  -35.9550  -35.1610 C   0  0  0  0  0  0  0  0  0  0  0  0
    6.8820  -33.7310  -33.1000 C   0  0  2  0  0  0  0  0  0  0  0  0
    8.2420  -34.4190  -33.3200 C   0  0  2  0  0  0  0  0  0  0  0  0
    2.6710  -34.6530  -36.8180 C   0  0  0  0  0  0  0  0  0  0  0  0
   11.6970  -33.7480  -31.5740 C   0  0  0  0  0  0  0  0  0  0  0  0
  1 17  1  0
  2 20  1  1
  2 22  1  0
  2 24  1  0
  3  8  1  6
  3  9  1  0
  4 18  1  0
  5  4  1  0
  6 26  1  1
  6 15  1  0
  6  2  1  0
 27  7  1  6
  9  8  1  6
  9 10  1  0
 10  7  1  1
 11  1  1  1
 11 25  1  0
 12 14  1  0
 12 29  1  0
 13 10  1  0
 14 29  1  6
 14  3  1  0
 15 13  1  0
 28 15  1  1
 16  4  1  0
 17 23  1  0
 19 25  1  0
 19 21  1  0
 21  5  1  1
 22 19  1  1
 24 30  2  0
 24 21  1  0
 25 23  1  1
 26 20  1  0
 27 11  1  0
 28 27  1  0
 28 22  1  0
 30 21  1  0
 30 16  1  0
M  END
$$$$

     RDKit          3D

 24 28  0  0  0  0  0  0  0  0999 V2000
   11.0050  -34.0290  -32.1560 C   0  0  1  0  0  0  0  0  0  0  0  0
    6.4360  -31.9130  -31.6610 C   0  0  0  0  0  0  0  0  0  0  0  0
    6.9590  -32.5490  -32.7860 C   0  0  1  0  0  0  0  0  0  0  0  0
    4.6810  -32.2780  -33.2570 O   0  0  0  0  0  0  0  0  0  0  0  0
   10.6630  -36.1100  -33.9510 C   0  0  0  0  0  0  0  0  0  0  0  0
    8.3780  -33.2920  -32.8350 C   0  0  1  0  0  0  0  0  0  0  0  0
   11.9910  -34.2230  -33.0140 C   0  0  0  0  0  0  0  0  0  0  0  0
    9.0690  -32.3750  -32.0350 O   0  0  0  0  0  0  0  0  0  0  0  0
   12.4240  -33.9150  -30.1180 C   0  0  0  0  0  0  0  0  0  0  0  0
   14.0420  -32.0430  -25.9790 C   0  0  0  0  0  0  0  0  0  0  0  0
    5.6840  -32.4120  -32.9360 C   0  0  0  0  0  0  0  0  0  0  0  0
   12.5670  -33.2870  -28.9880 N   0  0  0  0  0  0  0  0  0  0  0  0
   13.3550  -32.4950  -27.2340 C   0  0  0  0  0  0  0  0  0  0  0  0
   11.9190  -35.2870  -33.8810 C   0  0  0  0  0  0  0  0  0  0  0  0
   11.2390  -33.5900  -30.8350 C   0  0  0  0  0  0  0  0  0  0  0  0
   12.1040  -31.9700  -27.2750 N   0  0  0  0  0  0  0  0  0  0  0  0
   11.7270  -32.4270  -28.4950 C   0  0  0  0  0  0  0  0  0  0  0  0
   10.5140  -32.2280  -29.0930 C   0  0  0  0  0  0  0  0  0  0  0  0
   10.7030  -37.0070  -34.7460 O   0  0  0  0  0  0  0  0  0  0  0  0
   13.7900  -33.3450  -28.1300 C   0  0  0  0  0  0  0  0  0  0  0  0
    9.5390  -35.5820  -33.3440 C   0  0  0  0  0  0  0  0  0  0  0  0
   10.2660  -32.8680  -30.2300 C   0  0  0  0  0  0  0  0  0  0  0  0
    9.0940  -32.8190  -30.8120 C   0  0  0  0  0  0  0  0  0  0  0  0
    9.6220  -34.2260  -32.7340 C   0  0  1  0  0  0  0  0  0  0  0  0
  1  7  1  6
  1 15  1  0
  3  2  1  1
  4 11  2  0
  5 14  1  0
  5 21  1  0
  6  3  1  0
  6 24  1  0
  6  8  1  1
  8 23  1  0
  9 12  1  0
 11  3  1  0
 11  2  1  0
 12 17  1  0
 12 20  1  0
 13 10  1  0
 14  7  2  0
 15 22  1  0
 15  9  2  0
 16 13  1  0
 17 16  2  0
 18 17  1  0
 19  5  2  0
 20 13  2  0
 22 18  2  0
 23 22  1  0
 24 21  1  6
 24  1  1  0
M  END
$$$$

     RDKit          3D

 23 25  0  0  0  0  0  0  0  0999 V2000
   10.3560  -33.4190  -31.1750 C   0  0  1  0  0  0  0  0  0  0  0  0
   10.2650  -35.8060  -33.2450 C   0  0  0  0  0  0  0  0  0  0  0  0
    6.4450  -34.2490  -34.9460 C   0  0  0  0  0  0  0  0  0  0  0  0
    8.0260  -35.9860  -35.3850 C   0  0  0  0  0  0  0  0  0  0  0  0
   10.2380  -34.5610  -31.5050 C   0  0  2  0  0  0  0  0  0  0  0  0
    5.7100  -35.0700  -37.4690 F   0  0  0  0  0  0  0  0  0  0  0  0
   10.6940  -35.2850  -32.5520 C   0  0  0  0  0  0  0  0  0  0  0  0
   11.5020  -33.7820  -30.6050 C   0  0  0  0  0  0  0  0  0  0  0  0
    6.0310  -33.4800  -33.6570 C   0  0  0  0  0  0  0  0  0  0  0  0
    8.9880  -36.8980  -34.9040 C   0  0  0  0  0  0  0  0  0  0  0  0
    5.3320  -33.5910  -33.5270 O   0  0  0  0  0  0  0  0  0  0  0  0
    9.7790  -33.6680  -32.3570 C   0  0  1  0  0  0  0  0  0  0  0  0
    7.7000  -34.7170  -34.3210 C   0  0  0  0  0  0  0  0  0  0  0  0
   10.2700  -36.4960  -34.3520 C   0  0  0  0  0  0  0  0  0  0  0  0
    7.3610  -35.9430  -36.5520 C   0  0  0  0  0  0  0  0  0  0  0  0
    8.9150  -34.7180  -33.6740 C   0  0  0  0  0  0  0  0  0  0  0  0
    5.7920  -34.6570  -35.6060 C   0  0  0  0  0  0  0  0  0  0  0  0
    6.1760  -35.4100  -36.7680 C   0  0  0  0  0  0  0  0  0  0  0  0
    9.2970  -34.7670  -32.7430 O   0  0  0  0  0  0  0  0  0  0  0  0
    9.5930  -32.5700  -30.3350 N   0  0  0  0  0  0  0  0  0  0  0  0
   12.7290  -33.5510  -31.4170 C   0  0  0  0  0  0  0  0  0  0  0  0
   10.1990  -32.7050  -32.4560 O   0  0  0  0  0  0  0  0  0  0  0  0
    8.4370  -32.4500  -30.8440 O   0  0  0  0  0  0  0  0  0  0  0  0
  1  8  1  6
  1 20  1  0
  2  7  2  3
  3 13  1  0
  3  9  1  0
  4 10  1  0
  4 13  2  0
  5  7  1  6
  5  1  1  0
  6 18  1  0
  9 11  1  0
 10 14  1  0
 12 22  1  6
 12  5  1  0
 12  1  1  0
 13 16  1  0
 14  2  1  0
 15  4  1  0
 16 19  1  0
 17  3  2  0
 18 15  2  0
 18 17  1  0
 19 12  1  0
 21  8  1  0
 23 20  1  0
M  END
$$$$

     RDKit          3D

 29 32  0  0  0  0  0  0  0  0999 V2000
   10.8510  -33.5720  -31.5960 N   0  0  0  0  0  0  0  0  0  0  0  0
   10.6560  -34.0430  -27.9450 C   0  0  0  0  0  0  0  0  0  0  0  0
    9.1090  -34.7660  -33.9910 C   0  0  0  0  0  0  0  0  0  0  0  0
   11.5380  -33.0600  -27.5430 C   0  0  0  0  0  0  0  0  0  0  0  0
   10.4500  -34.1800  -29.2710 C   0  0  0  0  0  0  0  0  0  0  0  0
    7.2060  -34.8690  -34.7480 C   0  0  0  0  0  0  0  0  0  0  0  0
    3.1890  -34.1530  -35.0700 N   0  0  0  0  0  0  0  0  0  0  0  0
   12.1940  -32.3070  -28.5090 C   0  0  0  0  0  0  0  0  0  0  0  0
   11.0130  -33.2970  -30.2440 C   0  0  0  0  0  0  0  0  0  0  0  0
   11.8200  -32.3860  -29.8170 C   0  0  0  0  0  0  0  0  0  0  0  0
    9.6960  -33.5080  -32.1150 O   0  0  0  0  0  0  0  0  0  0  0  0
    3.5720  -32.6850  -33.2530 C   0  0  0  0  0  0  0  0  0  0  0  0
    9.1200  -35.6800  -34.9530 C   0  0  0  0  0  0  0  0  0  0  0  0
    5.3820  -33.8570  -33.9740 C   0  0  0  0  0  0  0  0  0  0  0  0
    6.4100  -31.6980  -32.6150 C   0  0  0  0  0  0  0  0  0  0  0  0
    6.4800  -31.7450  -31.1720 C   0  0  0  0  0  0  0  0  0  0  0  0
   11.8520  -35.1360  -34.0910 O   0  0  0  0  0  0  0  0  0  0  0  0
   11.8170  -33.8340  -32.3330 C   0  0  0  0  0  0  0  0  0  0  0  0
    5.8930  -34.7510  -34.8350 C   0  0  0  0  0  0  0  0  0  0  0  0
    9.9230  -34.3730  -33.0460 C   0  0  2  0  0  0  0  0  0  0  0  0
   11.1930  -34.5560  -33.2480 C   0  0  0  0  0  0  0  0  0  0  0  0
    3.0380  -32.0020  -32.5100 N   0  0  0  0  0  0  0  0  0  0  0  0
    4.0420  -33.5650  -34.1280 C   0  0  0  0  0  0  0  0  0  0  0  0
    6.0010  -33.1080  -33.0340 O   0  0  0  0  0  0  0  0  0  0  0  0
    2.9950  -35.6080  -36.7620 N   0  0  0  0  0  0  0  0  0  0  0  0
    5.2040  -35.2350  -35.9390 C   0  0  0  0  0  0  0  0  0  0  0  0
    3.7880  -34.9850  -35.9270 C   0  0  0  0  0  0  0  0  0  0  0  0
    7.8530  -34.3030  -33.9110 O   0  0  0  0  0  0  0  0  0  0  0  0
    7.9400  -35.6690  -35.4740 C   0  0  0  0  0  0  0  0  0  0  0  0
  1  9  1  0
  2  4  2  0
  3 28  1  0
  5  2  1  0
  6 28  1  0
  7 23  2  0
  8  4  1  0
  9 10  1  0
  9  5  2  0
 10  8  2  0
 11  1  1  0
 12 22  3  0
 13  3  2  0
 14 24  1  0
 15 16  1  0
 17 21  2  0
 18  1  1  0
 19  6  1  0
 19 14  2  0
 20  3  1  6
 20 11  1  0
 21 20  1  0
 21 18  1  0
 23 14  1  0
 23 12  1  0
 24 15  1  0
 25 27  1  0
 26 27  2  0
 26 19  1  0
 27  7  1  0
 29 13  1  0
 29  6  2  0
M  END
$$$$

     RDKit          3D

 22 23  0  0  0  0  0  0  0  0999 V2000
    8.8870  -34.6200  -32.8870 C   0  0  1  0  0  0  0  0  0  0  0  0
    8.5890  -35.4110  -34.1200 C   0  0  0  0  0  0  0  0  0  0  0  0
   10.4980  -32.8500  -30.3630 C   0  0  0  0  0  0  0  0  0  0  0  0
    9.1960  -35.4100  -33.5320 C   0  0  1  0  0  0  0  0  0  0  0  0
    6.3880  -32.3870  -32.0740 C   0  0  0  0  0  0  0  0  0  0  0  0
    7.5830  -32.3700  -31.7870 C   0  0  0  0  0  0  0  0  0  0  0  0
    9.6100  -35.5950  -33.8950 C   0  0  0  0  0  0  0  0  0  0  0  0
   10.3460  -33.5140  -31.2990 C   0  0  1  0  0  0  0  0  0  0  0  0
   10.4620  -33.5560  -32.3010 C   0  0  2  0  0  0  0  0  0  0  0  0
    9.9900  -34.0330  -32.4800 C   0  0  0  0  0  0  0  0  0  0  0  0
    3.8460  -32.2220  -31.9160 C   0  0  0  0  0  0  0  0  0  0  0  0
   11.8640  -36.1980  -34.3670 S   0  0  0  0  0  0  0  0  0  0  0  0
    5.8700  -33.1810  -33.0980 C   0  0  0  0  0  0  0  0  0  0  0  0
    6.8780  -33.9260  -33.8430 C   0  0  0  0  0  0  0  0  0  0  0  0
    5.8600  -31.5930  -31.1830 O   0  0  0  0  0  0  0  0  0  0  0  0
   11.2490  -34.0100  -33.4320 C   0  0  0  0  0  0  0  0  0  0  0  0
   11.4090  -35.5570  -33.6290 C   0  0  1  0  0  0  0  0  0  0  0  0
   10.7530  -36.0010  -33.7790 C   0  0  0  0  0  0  0  0  0  0  0  0
    4.6370  -31.3810  -31.2480 C   0  0  0  0  0  0  0  0  0  0  0  0
   11.0550  -33.7550  -30.5270 C   0  0  0  0  0  0  0  0  0  0  0  0
    8.7870  -33.4020  -32.3030 C   0  0  0  0  0  0  0  0  0  0  0  0
    8.2930  -33.9650  -33.3640 C   0  0  1  0  0  0  0  0  0  0  0  0
  1 22  1  0
  1 10  1  6
  4  2  1  6
  4  1  1  0
  5  6  2  0
  5 15  1  0
  7 18  1  0
  7  4  1  0
  8 20  1  1
  8  3  1  0
  9  8  1  0
  9 10  1  6
 11 19  2  0
 13  5  1  0
 14 22  1  0
 14 13  1  0
 16  9  1  0
 17 12  1  6
 17 16  1  0
 18 17  1  0
 19 15  1  0
 20  3  1  0
 22 21  1  1
M  END
$$$$

     RDKit          3D

 22 25  0  0  0  0  0  0  0  0999 V2000
    6.7510  -34.4580  -34.3840 C   0  0  0  0  0  0  0  0  0  0  0  0
    7.4390  -33.1440  -32.6170 N   0  0  0  0  0  0  0  0  0  0  0  0
   11.2040  -34.3920  -33.9250 C   0  0  0  0  0  0  0  0  0  0  0  0
    4.5840  -34.3170  -35.3970 N   0  0  0  0  0  0  0  0  0  0  0  0
    8.9870  -34.4600  -33.1410 C   0  0  0  0  0  0  0  0  0  0  0  0
   10.6530  -33.5440  -31.5430 C   0  0  1  0  0  0  0  0  0  0  0  0
    7.7110  -34.0950  -33.4550 C   0  0  0  0  0  0  0  0  0  0  0  0
    8.1640  -36.0570  -35.2620 O   0  0  0  0  0  0  0  0  0  0  0  0
    5.1810  -32.5550  -32.7690 O   0  0  0  0  0  0  0  0  0  0  0  0
    4.9500  -35.1430  -36.3400 C   0  0  0  0  0  0  0  0  0  0  0  0
    4.2120  -35.3760  -37.4050 F   0  0  0  0  0  0  0  0  0  0  0  0
    6.6390  -31.6500  -31.2480 C   0  0  0  0  0  0  0  0  0  0  0  0
    9.9390  -35.2060  -33.5790 O   0  0  0  0  0  0  0  0  0  0  0  0
    5.4560  -34.0390  -34.4370 C   0  0  0  0  0  0  0  0  0  0  0  0
    7.0480  -35.4110  -35.3370 C   0  0  0  0  0  0  0  0  0  0  0  0
   10.7710  -33.8500  -30.2040 C   0  0  0  0  0  0  0  0  0  0  0  0
    7.9960  -31.7890  -31.0500 C   0  0  0  0  0  0  0  0  0  0  0  0
    6.1510  -35.7580  -36.4000 C   0  0  0  0  0  0  0  0  0  0  0  0
    6.2970  -32.4920  -32.3150 C   0  0  0  0  0  0  0  0  0  0  0  0
    8.4380  -32.7720  -31.8130 C   0  0  0  0  0  0  0  0  0  0  0  0
    9.4210  -33.5670  -32.1070 C   0  0  0  0  0  0  0  0  0  0  0  0
   10.9320  -32.4770  -30.5740 C   0  0  0  0  0  0  0  0  0  0  0  0
  1  7  1  0
  2 19  1  0
  2 20  1  0
  3 13  1  0
  4 14  2  0
  5 21  1  0
  6 22  1  0
  6 16  1  0
  7  5  2  0
  7  2  1  0
  9 19  2  0
 10  4  1  0
 11 10  1  0
 12 17  2  0
 13  5  1  0
 14  1  1  0
 15  8  1  0
 15  1  2  0
 18 10  2  0
 18 15  1  0
 19 12  1  0
 20 17  1  0
 21 20  2  0
  6 21  1  1
 22 16  1  0
M  END
$$$$

     RDKit          3D

 18 20  0  0  0  0  0  0  0  0999 V2000
    8.5040  -35.3030  -33.9480 C   0  0  0  0  0  0  0  0  0  0  0  0
   10.5710  -35.6840  -33.2290 C   0  0  0  0  0  0  0  0  0  0  0  0
    9.4710  -32.8820  -31.2040 C   0  0  0  0  0  0  0  0  0  0  0  0
   10.6660  -34.7740  -32.3400 C   0  0  0  0  0  0  0  0  0  0  0  0
   11.1470  -33.2700  -29.6850 N   0  0  0  0  0  0  0  0  0  0  0  0
    7.3910  -35.6330  -34.7250 C   0  0  0  0  0  0  0  0  0  0  0  0
    7.4170  -33.3210  -32.9140 C   0  0  0  0  0  0  0  0  0  0  0  0
    8.3800  -34.1690  -33.0530 C   0  0  0  0  0  0  0  0  0  0  0  0
   10.4790  -33.0900  -30.2910 C   0  0  0  0  0  0  0  0  0  0  0  0
    4.3140  -33.9480  -34.9760 C   0  0  0  0  0  0  0  0  0  0  0  0
    6.3230  -33.6540  -33.7980 C   0  0  0  0  0  0  0  0  0  0  0  0
    9.5770  -36.0350  -34.0680 C   0  0  0  0  0  0  0  0  0  0  0  0
    9.6590  -33.9500  -32.1640 C   0  0  0  0  0  0  0  0  0  0  0  0
    2.8290  -34.9970  -36.3560 O   0  0  0  0  0  0  0  0  0  0  0  0
    3.1680  -33.7710  -35.8280 C   0  0  0  0  0  0  0  0  0  0  0  0
    5.1110  -33.0490  -34.0740 O   0  0  0  0  0  0  0  0  0  0  0  0
    6.3310  -34.7700  -34.6150 C   0  0  0  0  0  0  0  0  0  0  0  0
    5.2560  -34.7920  -35.2390 N   0  0  0  0  0  0  0  0  0  0  0  0
  1  8  1  0
  2  4  2  0
  3  9  1  0
  4 13  1  0
  6 17  2  0
  6  1  1  0
  8  7  1  0
  8 13  2  0
  9  5  3  0
 10 16  1  0
 11  7  2  0
 12  1  2  0
 12  2  1  0
 13  3  1  0
 14 15  1  0
 15 10  1  0
 16 11  1  0
 17 11  1  0
 18 10  2  0
 18 17  1  0
M  END
$$$$

     RDKit          3D

 26 29  0  0  0  0  0  0  0  0999 V2000
   13.9970  -33.5750  -33.2180 S   0  0  0  0  0  0  0  0  0  0  0  0
    9.0040  -31.9220  -30.5140 C   0  0  0  0  0  0  0  0  0  0  0  0
    4.9710  -32.4440  -32.7760 C   0  0  0  0  0  0  0  0  0  0  0  0
    4.0410  -34.9560  -37.2560 C   0  0  0  0  0  0  0  0  0  0  0  0
    8.0270  -35.6700  -35.0310 C   0  0  0  0  0  0  0  0  0  0  0  0
    4.1350  -35.1910  -35.7980 C   0  0  1  0  0  0  0  0  0  0  0  0
    9.2100  -34.1290  -33.6480 C   0  0  0  0  0  0  0  0  0  0  0  0
    9.2330  -36.3310  -35.2500 C   0  0  0  0  0  0  0  0  0  0  0  0
   10.4260  -35.8100  -34.7500 C   0  0  0  0  0  0  0  0  0  0  0  0
   11.7500  -33.0640  -32.5140 N   0  0  0  0  0  0  0  0  0  0  0  0
    5.6360  -34.0480  -34.3190 C   0  0  0  0  0  0  0  0  0  0  0  0
    2.6500  -36.7720  -36.5190 N   0  0  0  0  0  0  0  0  0  0  0  0
    3.8940  -36.7410  -35.6910 C   0  0  0  0  0  0  0  0  0  0  0  0
    4.7010  -33.2870  -33.8150 N   0  0  0  0  0  0  0  0  0  0  0  0
    6.1300  -32.4680  -32.1700 C   0  0  0  0  0  0  0  0  0  0  0  0
    7.1330  -33.1580  -32.7110 N   0  0  0  0  0  0  0  0  0  0  0  0
    2.6700  -35.7240  -37.4510 C   0  0  0  0  0  0  0  0  0  0  0  0
    5.4670  -35.0420  -35.2560 O   0  0  0  0  0  0  0  0  0  0  0  0
    7.9930  -34.6660  -34.1670 C   0  0  0  0  0  0  0  0  0  0  0  0
   11.6220  -34.0800  -33.4340 C   0  0  0  0  0  0  0  0  0  0  0  0
    7.7320  -31.7990  -30.7390 C   0  0  0  0  0  0  0  0  0  0  0  0
   12.8050  -34.4940  -33.7270 N   0  0  0  0  0  0  0  0  0  0  0  0
   10.4110  -34.6930  -33.9250 C   0  0  0  0  0  0  0  0  0  0  0  0
    6.9260  -33.9990  -33.7630 C   0  0  0  0  0  0  0  0  0  0  0  0
   12.9760  -32.8050  -32.0840 C   0  0  0  0  0  0  0  0  0  0  0  0
    6.4830  -31.6830  -31.0170 C   0  0  0  0  0  0  0  0  0  0  0  0
  1 25  1  0
  3 15  2  0
  4  6  1  0
  5 19  2  0
  6 13  1  0
  6 18  1  6
  8  5  1  0
  8  9  2  0
  9 23  1  0
 10 25  1  0
 11 14  2  0
 11 24  1  0
 12 13  1  0
 14  3  1  0
 15 26  1  0
 16 15  1  0
 17  4  1  0
 17 12  1  0
 18 11  1  0
 19 24  1  0
 19  7  1  0
 20 10  2  0
 21  2  3  0
 22 20  1  0
 22  1  1  0
 23  7  2  0
 23 20  1  0
 24 16  2  0
 26 21  1  0
M  END
$$$$

     RDKit          3D

 23 27  0  0  0  0  0  0  0  0999 V2000
   10.3660  -34.2700  -31.5410 C   0  0  2  0  0  0  0  0  0  0  0  0
    6.2130  -31.5350  -31.4780 C   0  0  0  0  0  0  0  0  0  0  0  0
    7.4940  -33.5020  -33.1840 C   0  0  0  0  0  0  0  0  0  0  0  0
    5.9690  -33.0960  -33.1020 C   0  0  0  0  0  0  0  0  0  0  0  0
    9.7220  -33.6100  -32.4330 C   0  0  2  0  0  0  0  0  0  0  0  0
   10.8450  -32.9870  -29.8790 C   0  0  0  0  0  0  0  0  0  0  0  0
    3.9490  -31.1900  -32.0720 C   0  0  0  0  0  0  0  0  0  0  0  0
    6.5460  -34.5930  -34.8330 C   0  0  0  0  0  0  0  0  0  0  0  0
    9.2790  -33.3620  -31.4010 C   0  0  1  0  0  0  0  0  0  0  0  0
    4.4440  -31.9240  -32.6080 O   0  0  0  0  0  0  0  0  0  0  0  0
    5.4010  -33.7620  -34.0760 C   0  0  0  0  0  0  0  0  0  0  0  0
    9.8330  -35.6810  -33.9020 C   0  0  0  0  0  0  0  0  0  0  0  0
    8.2700  -32.7650  -32.2580 C   0  0  0  0  0  0  0  0  0  0  0  0
   11.1930  -33.9700  -30.5060 C   0  0  0  0  0  0  0  0  0  0  0  0
    3.1330  -31.8160  -32.9440 C   0  0  0  0  0  0  0  0  0  0  0  0
    5.5140  -32.2220  -32.4600 C   0  0  0  0  0  0  0  0  0  0  0  0
    7.6400  -34.5740  -34.2250 C   0  0  1  0  0  0  0  0  0  0  0  0
   10.6060  -36.5640  -33.9450 O   0  0  0  0  0  0  0  0  0  0  0  0
    9.6460  -32.4880  -30.4570 C   0  0  0  0  0  0  0  0  0  0  0  0
    4.3870  -34.0380  -34.0410 O   0  0  0  0  0  0  0  0  0  0  0  0
    7.3630  -31.8700  -31.4540 C   0  0  0  0  0  0  0  0  0  0  0  0
    8.7300  -35.3440  -34.7470 C   0  0  0  0  0  0  0  0  0  0  0  0
   10.0390  -34.7720  -32.9770 O   0  0  0  0  0  0  0  0  0  0  0  0
  1  9  1  0
  1 14  1  1
  2 21  2  0
  3  4  1  0
  3 13  2  0
  4 16  2  0
  5 23  1  6
  5  1  1  0
  5  9  1  0
  8 11  1  0
  9 19  1  1
 10 16  1  0
 10  7  1  0
 11 20  2  0
 11  4  1  0
 12 23  1  0
 13 21  1  0
 13  9  1  0
 14  6  2  0
 15  7  1  0
 16  2  1  0
 17  8  1  6
 17  3  1  0
 18 12  2  0
 19  6  1  0
 22 17  1  0
 22 12  1  0
M  END
$$$$

     RDKit          3D

 25 28  0  0  0  0  0  0  0  0999 V2000
   10.7800  -31.9470  -27.7780 F   0  0  0  0  0  0  0  0  0  0  0  0
    7.6540  -33.5300  -33.0800 C   0  0  0  0  0  0  0  0  0  0  0  0
    9.2380  -35.9000  -35.3140 C   0  0  0  0  0  0  0  0  0  0  0  0
    5.9470  -35.1900  -35.9660 C   0  0  0  0  0  0  0  0  0  0  0  0
    9.9150  -33.6000  -32.1430 C   0  0  0  0  0  0  0  0  0  0  0  0
   11.9710  -30.9490  -29.1590 F   0  0  0  0  0  0  0  0  0  0  0  0
    6.9130  -31.5870  -31.1590 C   0  0  0  0  0  0  0  0  0  0  0  0
    6.2720  -33.0610  -33.0670 C   0  0  0  0  0  0  0  0  0  0  0  0
   11.3120  -32.0580  -28.9890 C   0  0  2  0  0  0  0  0  0  0  0  0
    7.8790  -34.5480  -34.1060 C   0  0  0  0  0  0  0  0  0  0  0  0
    7.0540  -35.1890  -35.1440 C   0  0  2  0  0  0  0  0  0  0  0  0
    8.0130  -35.7770  -35.9190 N   0  0  0  0  0  0  0  0  0  0  0  0
    5.9640  -32.1060  -32.0800 C   0  0  0  0  0  0  0  0  0  0  0  0
    5.5040  -33.6500  -33.9510 O   0  0  0  0  0  0  0  0  0  0  0  0
    6.1370  -35.2040  -37.2760 C   0  0  0  0  0  0  0  0  0  0  0  0
    9.1170  -31.7860  -30.2040 C   0  0  0  0  0  0  0  0  0  0  0  0
    4.8200  -35.3890  -37.7840 N   0  0  0  0  0  0  0  0  0  0  0  0
   10.4140  -32.3950  -30.1020 C   0  0  0  0  0  0  0  0  0  0  0  0
    8.2320  -32.1310  -31.2000 C   0  0  0  0  0  0  0  0  0  0  0  0
    9.1000  -35.1410  -34.1850 C   0  0  0  0  0  0  0  0  0  0  0  0
    4.6650  -35.5360  -35.6580 C   0  0  0  0  0  0  0  0  0  0  0  0
    3.9560  -35.5590  -36.7610 N   0  0  0  0  0  0  0  0  0  0  0  0
   10.7980  -33.2850  -31.1240 C   0  0  0  0  0  0  0  0  0  0  0  0
   12.2740  -32.9240  -28.8950 F   0  0  0  0  0  0  0  0  0  0  0  0
    8.5760  -33.1020  -32.1580 C   0  0  0  0  0  0  0  0  0  0  0  0
  2  8  1  0
  2 25  2  0
  3 20  1  0
  4 21  1  0
  5 23  2  0
  9  6  1  6
  8 13  2  0
  9 24  1  0
  9  1  1  0
 10  2  1  0
 11  4  1  6
 11 10  1  0
 12  3  1  0
 12 11  1  0
 13  7  1  0
 14  8  1  0
 15  4  2  0
 16 18  2  0
 17 15  1  0
 17 22  2  0
 18  9  1  0
 19  7  2  0
 19 16  1  0
 20 10  1  0
 22 21  1  0
 23 18  1  0
 25  5  1  0
 25 19  1  0
M  END
$$$$

     RDKit          3D

 35 38  0  0  0  0  0  0  0  0999 V2000
    9.4430  -35.6480  -35.9120 C   0  0  0  0  0  0  0  0  0  0  0  0
   11.2660  -33.7040  -30.4520 C   0  0  1  0  0  0  0  0  0  0  0  0
    8.9270  -37.0260  -34.1380 O   0  0  0  0  0  0  0  0  0  0  0  0
    8.0820  -35.4850  -36.9200 C   0  0  0  0  0  0  0  0  0  0  0  0
    6.2630  -31.5780  -30.5060 O   0  0  0  0  0  0  0  0  0  0  0  0
    8.9090  -32.7830  -32.5250 C   0  0  0  0  0  0  0  0  0  0  0  0
   11.2770  -33.4780  -33.1010 C   0  0  2  0  0  0  0  0  0  0  0  0
    5.9710  -32.0110  -31.5790 C   0  0  0  0  0  0  0  0  0  0  0  0
   11.0970  -31.7050  -27.5470 C   0  0  0  0  0  0  0  0  0  0  0  0
    6.4980  -33.0500  -33.2810 C   0  0  0  0  0  0  0  0  0  0  0  0
    4.9610  -32.2060  -31.8550 N   0  0  0  0  0  0  0  0  0  0  0  0
    6.7970  -32.1860  -31.9630 C   0  0  0  0  0  0  0  0  0  0  0  0
   12.6190  -33.4090  -29.8930 O   0  0  0  0  0  0  0  0  0  0  0  0
    9.4570  -34.9100  -33.3360 C   0  0  1  0  0  0  0  0  0  0  0  0
   11.0630  -32.5630  -28.4700 C   0  0  1  0  0  0  0  0  0  0  0  0
    8.1360  -32.0740  -31.5150 C   0  0  0  0  0  0  0  0  0  0  0  0
    3.2780  -34.6150  -36.6530 C   0  0  0  0  0  0  0  0  0  0  0  0
   10.3610  -32.9870  -29.5700 C   0  0  0  0  0  0  0  0  0  0  0  0
    3.9080  -35.5200  -37.5380 C   0  0  0  0  0  0  0  0  0  0  0  0
    7.5430  -35.1390  -34.7480 C   0  0  0  0  0  0  0  0  0  0  0  0
   10.9680  -34.6020  -33.7420 C   0  0  0  0  0  0  0  0  0  0  0  0
   12.8180  -33.4930  -33.0070 C   0  0  0  0  0  0  0  0  0  0  0  0
   12.3200  -33.0990  -28.7250 C   0  0  0  0  0  0  0  0  0  0  0  0
   10.0590  -31.9360  -27.5750 C   0  0  0  0  0  0  0  0  0  0  0  0
    4.0780  -35.4430  -35.6830 C   0  0  1  0  0  0  0  0  0  0  0  0
    6.0200  -35.9220  -36.5570 C   0  0  0  0  0  0  0  0  0  0  0  0
    7.3810  -35.7260  -36.2520 O   0  0  0  0  0  0  0  0  0  0  0  0
   11.1660  -33.1200  -31.7190 O   0  0  0  0  0  0  0  0  0  0  0  0
    8.4360  -33.7200  -33.0400 C   0  0  2  0  0  0  0  0  0  0  0  0
    7.4820  -33.8450  -34.0820 C   0  0  2  0  0  0  0  0  0  0  0  0
    5.3470  -36.2580  -36.0490 C   0  0  0  0  0  0  0  0  0  0  0  0
    8.5770  -35.9520  -34.5910 C   0  0  1  0  0  0  0  0  0  0  0  0
   13.3110  -32.9120  -27.9670 O   0  0  0  0  0  0  0  0  0  0  0  0
   10.9670  -35.1730  -30.0690 C   0  0  0  0  0  0  0  0  0  0  0  0
    5.4100  -35.5710  -37.1920 C   0  0  0  0  0  0  0  0  0  0  0  0
  1 32  1  0
  2 34  1  6
  2 13  1  0
  2 18  1  0
  4 27  1  0
  4  1  1  0
  6 16  1  0
  7 22  1  1
  7 28  1  0
  8  5  2  0
 10 12  2  0
 11  8  1  0
 12  8  1  0
 12 16  1  0
 13 23  1  0
 14 21  1  6
 14 29  1  0
 15  9  1  6
 17 25  1  0
 18 15  1  0
 19 17  1  0
 19 25  1  0
 20 32  1  0
 21  7  1  0
 23 15  1  0
 23 33  2  0
 24  9  1  0
 26 27  1  0
 26 31  1  0
 28  2  1  0
 29  6  1  6
 30 20  1  1
 30 10  1  0
 30 29  1  0
 25 31  1  6
 32  3  1  1
 32 14  1  0
 35 26  2  0
M  END
$$$$

     RDKit          3D

 17 20  0  0  0  0  0  0  0  0999 V2000
    8.6290  -33.1280  -32.0600 C   0  0  0  0  0  0  0  0  0  0  0  0
    8.5200  -33.6950  -33.4200 C   0  0  0  0  0  0  0  0  0  0  0  0
    9.4670  -34.5100  -32.4490 C   0  0  1  0  0  0  0  0  0  0  0  0
    9.2970  -34.1050  -32.7660 C   0  0  2  0  0  0  0  0  0  0  0  0
    5.1990  -35.6740  -35.8380 N   0  0  0  0  0  0  0  0  0  0  0  0
    5.9890  -34.2070  -34.1610 C   0  0  0  0  0  0  0  0  0  0  0  0
   10.3750  -34.4330  -31.3410 C   0  0  0  0  0  0  0  0  0  0  0  0
    9.3750  -32.8250  -30.7050 C   0  0  0  0  0  0  0  0  0  0  0  0
    9.7990  -33.4580  -31.5610 C   0  0  1  0  0  0  0  0  0  0  0  0
    6.9610  -33.5110  -33.5170 C   0  0  0  0  0  0  0  0  0  0  0  0
    7.4880  -35.2990  -35.5530 C   0  0  0  0  0  0  0  0  0  0  0  0
    6.1420  -35.0050  -35.1510 C   0  0  0  0  0  0  0  0  0  0  0  0
    9.5690  -35.5280  -32.8590 C   0  0  0  0  0  0  0  0  0  0  0  0
    8.0460  -34.9660  -34.8690 S   0  0  0  0  0  0  0  0  0  0  0  0
    9.2190  -35.3650  -33.6640 S   0  0  0  0  0  0  0  0  0  0  0  0
    7.8430  -34.2650  -33.4420 C   0  0  1  0  0  0  0  0  0  0  0  0
    7.8690  -34.8230  -34.2450 C   0  0  1  0  0  0  0  0  0  0  0  0
  1  9  1  0
  3 13  1  6
  3  9  1  0
  3  7  1  0
  4  2  1  6
  4  3  1  0
  4  1  1  0
  5 12  1  0
  6 10  1  0
  9  7  1  0
  9  8  1  6
 11 12  1  0
 11 14  1  0
 12  6  2  0
 15 13  1  0
 16 10  1  6
 16  2  1  0
 17 14  1  6
 17 15  1  0
 17 16  1  0
M  END
$$$$

     RDKit          3D

 22 25  0  0  0  0  0  0  0  0999 V2000
    8.2740  -34.9740  -34.0950 C   0  0  0  0  0  0  0  0  0  0  0  0
    5.8910  -34.7400  -35.3710 O   0  0  0  0  0  0  0  0  0  0  0  0
    9.9910  -36.1880  -33.6610 C   0  0  0  0  0  0  0  0  0  0  0  0
    5.2490  -33.0800  -33.5990 C   0  0  1  0  0  0  0  0  0  0  0  0
    9.6290  -33.1030  -30.9870 C   0  0  0  0  0  0  0  0  0  0  0  0
   11.9030  -33.6370  -31.5590 C   0  0  0  0  0  0  0  0  0  0  0  0
    7.9470  -33.5060  -32.6460 C   0  0  0  0  0  0  0  0  0  0  0  0
    6.2060  -33.9920  -34.2420 C   0  0  1  0  0  0  0  0  0  0  0  0
   10.9280  -33.1250  -30.6720 C   0  0  0  0  0  0  0  0  0  0  0  0
    9.2270  -36.8120  -34.2960 C   0  0  0  0  0  0  0  0  0  0  0  0
    7.4510  -34.3800  -33.5760 C   0  0  0  0  0  0  0  0  0  0  0  0
   10.0040  -34.0090  -32.9870 C   0  0  0  0  0  0  0  0  0  0  0  0
   11.8580  -34.9170  -33.5500 O   0  0  0  0  0  0  0  0  0  0  0  0
   11.3600  -34.2010  -32.8130 C   0  0  0  0  0  0  0  0  0  0  0  0
    7.8730  -36.0280  -34.7980 C   0  0  0  0  0  0  0  0  0  0  0  0
    4.4910  -32.5120  -32.2340 C   0  0  0  0  0  0  0  0  0  0  0  0
    4.9130  -34.7890  -35.7530 O   0  0  0  0  0  0  0  0  0  0  0  0
    9.0660  -33.5850  -32.2340 C   0  0  0  0  0  0  0  0  0  0  0  0
    7.1160  -32.7870  -32.4020 C   0  0  2  0  0  0  0  0  0  0  0  0
    9.5490  -35.3820  -33.7090 C   0  0  0  0  0  0  0  0  0  0  0  0
    6.0570  -32.1750  -32.9570 C   0  0  1  0  0  0  0  0  0  0  0  0
    7.5100  -31.3290  -31.0040 Cl  0  0  0  0  0  0  0  0  0  0  0  0
  1 20  2  0
  1 11  1  0
  4 21  1  0
  4 16  1  1
  5  9  2  0
  6  9  1  0
  7 19  1  0
  7 18  1  0
  8  2  1  1
  8  4  1  0
  8 11  1  0
 10  3  1  0
 11  7  2  0
 12 14  1  0
 12 18  2  0
 13 14  2  0
 14  6  1  0
 15  1  1  0
 17  2  1  0
 18  5  1  0
 19 22  1  6
 20  3  1  0
 20 12  1  0
 21 19  1  0
 21 16  1  1
M  END
$$$$

     RDKit          3D

 14 14  0  0  0  0  0  0  0  0999 V2000
    7.4440  -35.4290  -34.8870 C   0  0  0  0  0  0  0  0  0  0  0  0
    6.7620  -34.1170  -35.0000 C   0  0  0  0  0  0  0  0  0  0  0  0
    9.4250  -34.4020  -32.8360 C   0  0  1  0  0  0  0  0  0  0  0  0
    8.3690  -34.0530  -33.0810 C   0  0  0  0  0  0  0  0  0  0  0  0
    8.3470  -32.3090  -31.3060 C   0  0  0  0  0  0  0  0  0  0  0  0
   10.2300  -32.3020  -30.1910 F   0  0  0  0  0  0  0  0  0  0  0  0
   10.2010  -33.9140  -31.9420 C   0  0  0  0  0  0  0  0  0  0  0  0
    9.6420  -32.8390  -31.1490 C   0  0  0  0  0  0  0  0  0  0  0  0
    9.9720  -35.5110  -33.4440 N   0  0  0  0  0  0  0  0  0  0  0  0
    6.5080  -31.7690  -32.2050 C   0  0  0  0  0  0  0  0  0  0  0  0
    7.6200  -32.7810  -32.3140 C   0  0  2  0  0  0  0  0  0  0  0  0
    6.0280  -33.9160  -33.8050 C   0  0  0  0  0  0  0  0  0  0  0  0
    7.2270  -33.5370  -33.0320 N   0  0  0  0  0  0  0  0  0  0  0  0
   11.3710  -34.2620  -31.6240 O   0  0  0  0  0  0  0  0  0  0  0  0
  2  1  1  0
  2 12  1  0
  3  9  1  1
  3  7  1  0
  4 13  1  0
  4  3  1  0
  5  8  2  0
  7 14  2  0
  7  8  1  0
  8  6  1  0
 11 10  1  1
 11  5  1  0
 12 13  1  0
 13 11  1  0
M  END
$$$$

     RDKit          3D

 18 21  0  0  0  0  0  0  0  0999 V2000
    7.9940  -36.1720  -35.0790 C   0  0  0  0  0  0  0  0  0  0  0  0
   12.1610  -33.3680  -31.6620 C   0  0  0  0  0  0  0  0  0  0  0  0
    9.1110  -34.4080  -33.2250 C   0  0  0  0  0  0  0  0  0  0  0  0
    9.7870  -33.7630  -32.1680 C   0  0  0  0  0  0  0  0  0  0  0  0
    7.1770  -33.1490  -32.7820 C   0  0  0  0  0  0  0  0  0  0  0  0
    4.6410  -35.3690  -36.9090 C   0  0  0  0  0  0  0  0  0  0  0  0
    9.2030  -32.9240  -31.3770 C   0  0  0  0  0  0  0  0  0  0  0  0
   11.3380  -33.5630  -30.4570 C   0  0  2  0  0  0  0  0  0  0  0  0
    3.8620  -36.3320  -36.0140 C   0  0  0  0  0  0  0  0  0  0  0  0
    5.7660  -34.7410  -36.0970 C   0  0  0  0  0  0  0  0  0  0  0  0
   11.0850  -34.3430  -31.6470 C   0  0  2  0  0  0  0  0  0  0  0  0
    5.9230  -34.9680  -34.8570 O   0  0  0  0  0  0  0  0  0  0  0  0
   10.1590  -32.6600  -30.1930 C   0  0  0  0  0  0  0  0  0  0  0  0
    7.7780  -34.1840  -33.4940 C   0  0  0  0  0  0  0  0  0  0  0  0
    7.8550  -32.5200  -31.7520 C   0  0  0  0  0  0  0  0  0  0  0  0
    7.1880  -35.0320  -34.4260 C   0  0  0  0  0  0  0  0  0  0  0  0
    9.2880  -36.4100  -34.3600 C   0  0  0  0  0  0  0  0  0  0  0  0
    9.8290  -35.1580  -34.1260 O   0  0  0  0  0  0  0  0  0  0  0  0
  1 16  1  0
  1 17  1  0
  3  4  2  0
  4 11  1  0
  4  7  1  0
  5 15  1  0
  6 10  1  0
  6  9  1  0
  7 13  1  0
  8  2  1  6
  8 13  1  0
 10 12  1  0
 11  2  1  6
 11  8  1  0
 14  3  1  0
 14  5  2  0
 15  7  2  0
 16 12  1  0
 16 14  1  0
 17 18  1  0
 18  3  1  0
M  END
$$$$

     RDKit          3D

 15 15  0  0  0  0  0  0  0  0999 V2000
    5.3720  -32.3640  -32.3480 C   0  0  0  0  0  0  0  0  0  0  0  0
    2.0830  -32.2590  -33.1520 O   0  0  0  0  0  0  0  0  0  0  0  0
    7.3270  -33.0790  -33.2040 C   0  0  0  0  0  0  0  0  0  0  0  0
    6.7030  -32.4840  -32.3570 N   0  0  0  0  0  0  0  0  0  0  0  0
    8.1660  -31.7420  -30.6170 O   0  0  0  0  0  0  0  0  0  0  0  0
    7.1120  -33.8130  -34.0290 O   0  0  0  0  0  0  0  0  0  0  0  0
    8.6060  -33.3360  -32.6600 C   0  0  0  0  0  0  0  0  0  0  0  0
    4.3470  -32.7890  -33.1870 C   0  0  1  0  0  0  0  0  0  0  0  0
    4.7620  -31.7260  -31.3420 C   0  0  0  0  0  0  0  0  0  0  0  0
    3.4420  -31.5920  -31.5410 N   0  0  0  0  0  0  0  0  0  0  0  0
    3.2270  -32.1990  -32.6120 C   0  0  0  0  0  0  0  0  0  0  0  0
    3.8880  -33.4630  -34.5350 C   0  0  0  0  0  0  0  0  0  0  0  0
    7.8110  -31.9990  -31.7350 C   0  0  0  0  0  0  0  0  0  0  0  0
    4.5410  -34.8440  -34.7400 C   0  0  0  0  0  0  0  0  0  0  0  0
    4.2610  -35.1390  -36.0780 C   0  0  0  0  0  0  0  0  0  0  0  0
  1  9  2  0
  2 11  2  0
  3  7  1  0
  3  4  1  0
  4  1  1  0
  4 13  1  0
  6  3  2  0
  8 12  1  6
  8 11  1  0
  8  1  1  0
 10  9  1  0
 11 10  1  0
 13  5  2  0
 14 12  1  0
 15 14  1  0
M  END
$$$$

     RDKit          3D

 18 20  0  0  0  0  0  0  0  0999 V2000
    7.8000  -34.8110  -34.3070 C   0  0  0  0  0  0  0  0  0  0  0  0
    6.1660  -35.4830  -35.7790 N   0  0  0  0  0  0  0  0  0  0  0  0
    6.1680  -33.0960  -33.2450 C   0  0  0  0  0  0  0  0  0  0  0  0
    7.7450  -32.4390  -31.6060 C   0  0  0  0  0  0  0  0  0  0  0  0
   11.5310  -33.5470  -31.7420 C   0  0  0  0  0  0  0  0  0  0  0  0
    7.4270  -33.1940  -32.7390 C   0  0  0  0  0  0  0  0  0  0  0  0
    6.8850  -31.5520  -30.9840 C   0  0  0  0  0  0  0  0  0  0  0  0
    5.2820  -32.1640  -32.6690 C   0  0  0  0  0  0  0  0  0  0  0  0
    5.6000  -31.4370  -31.5580 C   0  0  0  0  0  0  0  0  0  0  0  0
   12.3020  -34.2120  -32.5970 C   0  0  0  0  0  0  0  0  0  0  0  0
    8.3120  -34.1150  -33.2670 C   0  0  0  0  0  0  0  0  0  0  0  0
   11.6930  -34.7550  -33.6860 C   0  0  0  0  0  0  0  0  0  0  0  0
   12.0590  -32.9120  -30.7640 F   0  0  0  0  0  0  0  0  0  0  0  0
    9.6630  -34.2090  -32.9540 C   0  0  0  0  0  0  0  0  0  0  0  0
    5.8090  -33.9080  -34.2600 N   0  0  0  0  0  0  0  0  0  0  0  0
   10.2240  -33.6570  -31.9140 C   0  0  0  0  0  0  0  0  0  0  0  0
    6.6290  -34.7310  -34.7420 C   0  0  0  0  0  0  0  0  0  0  0  0
   10.4620  -34.6310  -33.8620 C   0  0  0  0  0  0  0  0  0  0  0  0
  1 11  2  0
  2 17  1  0
  3  6  2  0
  3  8  1  0
  4  7  2  0
  5 13  1  0
  6  4  1  0
  8  9  2  0
  9  7  1  0
 10  5  2  0
 11 14  1  0
 11  6  1  0
 12 10  1  0
 14 16  2  0
 15  3  1  0
 16  5  1  0
 17  1  1  0
 17 15  2  0
 18 12  2  0
 18 14  1  0
M  END
$$$$

     RDKit          3D

 19 22  0  0  0  0  0  0  0  0999 V2000
    3.9950  -33.7530  -38.3320 C   0  0  0  0  0  0  0  0  0  0  0  0
    6.1560  -32.2730  -32.3120 C   0  0  0  0  0  0  0  0  0  0  0  0
    2.6250  -34.3050  -38.6480 C   0  0  0  0  0  0  0  0  0  0  0  0
    5.3730  -35.4830  -37.2440 C   0  0  0  0  0  0  0  0  0  0  0  0
    7.3120  -35.9460  -36.0440 C   0  0  0  0  0  0  0  0  0  0  0  0
    6.0880  -35.2890  -36.1950 C   0  0  0  0  0  0  0  0  0  0  0  0
    3.0980  -35.6050  -36.6980 C   0  0  0  0  0  0  0  0  0  0  0  0
    7.9170  -35.4700  -34.9010 C   0  0  0  0  0  0  0  0  0  0  0  0
    1.7340  -35.0540  -36.9340 C   0  0  0  0  0  0  0  0  0  0  0  0
    7.3050  -33.6540  -33.4160 C   0  0  0  0  0  0  0  0  0  0  0  0
    5.9970  -35.5830  -38.2700 O   0  0  0  0  0  0  0  0  0  0  0  0
    8.2820  -33.3260  -32.4160 O   0  0  0  0  0  0  0  0  0  0  0  0
    7.9570  -32.0020  -31.8480 C   0  0  0  0  0  0  0  0  0  0  0  0
    1.5400  -34.3280  -38.1430 N   0  0  0  0  0  0  0  0  0  0  0  0
    5.3590  -33.3650  -34.1610 C   0  0  0  0  0  0  0  0  0  0  0  0
    7.2290  -34.4840  -34.2290 C   0  0  0  0  0  0  0  0  0  0  0  0
    6.3120  -33.0230  -33.2030 C   0  0  0  0  0  0  0  0  0  0  0  0
    3.9190  -35.5100  -37.6570 N   0  0  0  0  0  0  0  0  0  0  0  0
    5.9980  -34.3420  -35.1540 C   0  0  0  0  0  0  0  0  0  0  0  0
  1 18  1  0
  2 13  1  0
  3  1  1  0
  3 14  1  0
  4  6  1  0
  5  8  1  0
  6  5  2  0
  6 19  1  0
  8 16  1  0
  9  7  2  0
 10 17  2  0
 10 12  1  0
 11  4  2  0
 12 13  1  0
 14  9  1  0
 15 17  1  0
 16 10  1  0
 17  2  1  0
 18  4  1  0
 18  7  1  0
 19 16  2  0
 19 15  1  0
M  END
$$$$

     RDKit          3D

 32 37  0  0  0  0  0  0  0  0999 V2000
    4.5060  -34.1930  -37.3400 C   0  0  1  0  0  0  0  0  0  0  0  0
    3.3270  -32.5950  -32.9360 C   0  0  0  0  0  0  0  0  0  0  0  0
    4.7150  -32.8470  -33.2690 C   0  0  0  0  0  0  0  0  0  0  0  0
    5.2560  -36.3470  -36.2230 C   0  0  0  0  0  0  0  0  0  0  0  0
    4.0810  -31.2760  -31.0760 C   0  0  0  0  0  0  0  0  0  0  0  0
   10.7230  -34.2670  -33.7320 C   0  0  0  0  0  0  0  0  0  0  0  0
   13.5300  -33.2740  -32.2280 C   0  0  0  0  0  0  0  0  0  0  0  0
   12.6680  -32.7020  -28.6700 O   0  0  0  0  0  0  0  0  0  0  0  0
    8.5610  -35.6130  -34.3170 C   0  0  0  0  0  0  0  0  0  0  0  0
   12.2690  -33.5870  -32.5890 C   0  0  0  0  0  0  0  0  0  0  0  0
    5.7010  -32.5290  -32.3810 C   0  0  0  0  0  0  0  0  0  0  0  0
    8.1690  -31.8300  -30.6470 Cl  0  0  0  0  0  0  0  0  0  0  0  0
    4.7240  -34.9800  -36.1610 C   0  0  2  0  0  0  0  0  0  0  0  0
   10.1540  -33.6630  -32.7320 C   0  0  2  0  0  0  0  0  0  0  0  0
    8.2040  -34.6010  -33.5850 C   0  0  0  0  0  0  0  0  0  0  0  0
    4.9350  -34.5080  -38.6040 C   0  0  0  0  0  0  0  0  0  0  0  0
   11.2020  -33.1190  -30.4790 C   0  0  0  0  0  0  0  0  0  0  0  0
    3.4690  -34.7150  -38.4010 C   0  0  0  0  0  0  0  0  0  0  0  0
    6.8840  -33.1270  -32.5190 C   0  0  0  0  0  0  0  0  0  0  0  0
   12.4810  -32.8190  -29.9470 C   0  0  0  0  0  0  0  0  0  0  0  0
    3.1070  -31.8190  -31.8980 C   0  0  0  0  0  0  0  0  0  0  0  0
   11.0740  -33.4590  -31.7990 C   0  0  0  0  0  0  0  0  0  0  0  0
    8.9230  -33.8500  -32.6270 N   0  0  0  0  0  0  0  0  0  0  0  0
    7.5340  -36.0030  -35.4000 C   0  0  0  0  0  0  0  0  0  0  0  0
   11.4660  -32.2890  -28.1830 C   0  0  0  0  0  0  0  0  0  0  0  0
    3.6890  -34.9810  -34.9220 C   0  0  0  0  0  0  0  0  0  0  0  0
    7.2470  -34.1110  -33.5100 N   0  0  0  0  0  0  0  0  0  0  0  0
    8.0940  -32.9840  -31.9590 C   0  0  0  0  0  0  0  0  0  0  0  0
   13.6510  -32.8010  -30.7910 C   0  0  0  0  0  0  0  0  0  0  0  0
    5.3670  -31.7120  -31.3420 C   0  0  0  0  0  0  0  0  0  0  0  0
    6.3280  -35.3220  -36.0660 C   0  0  1  0  0  0  0  0  0  0  0  0
   11.9410  -33.9830  -33.7250 N   0  0  0  0  0  0  0  0  0  0  0  0
  1 13  1  0
  2 21  2  0
  3  2  1  0
  3 11  2  0
  4 13  1  0
  4 31  1  0
  6 32  1  0
  7 29  1  0
  8 25  1  0
  9 15  1  0
 10  7  2  0
 10 22  1  0
 11 30  1  0
 13 31  1  0
 13 26  1  1
 14  6  1  0
 14 23  1  1
 14 22  1  0
 15 27  2  0
 15 23  1  0
 16 18  1  0
  1 16  1  6
 17 20  1  0
 18  1  1  0
 19 11  1  0
 19 28  2  0
 20  8  1  0
 21  5  1  0
 22 17  2  0
 23 28  1  0
 24  9  1  0
 27 19  1  0
 28 12  1  0
 29 20  2  0
 30  5  2  0
 31 24  1  1
 32 10  1  0
M  END
$$$$

     RDKit          3D

 24 27  0  0  0  0  0  0  0  0999 V2000
    9.2010  -33.1590  -30.9860 C   0  0  0  0  0  0  0  0  0  0  0  0
    9.7350  -35.8730  -33.5530 C   0  0  0  0  0  0  0  0  0  0  0  0
    6.4510  -31.3640  -31.4280 C   0  0  0  0  0  0  0  0  0  0  0  0
    9.7030  -33.8290  -32.1120 C   0  0  2  0  0  0  0  0  0  0  0  0
   12.0220  -32.3410  -28.4480 Cl  0  0  0  0  0  0  0  0  0  0  0  0
    5.1590  -31.2320  -31.2270 C   0  0  0  0  0  0  0  0  0  0  0  0
    7.7830  -34.4480  -33.5800 C   0  0  0  0  0  0  0  0  0  0  0  0
    8.1160  -36.3260  -35.0940 C   0  0  0  0  0  0  0  0  0  0  0  0
   10.1450  -32.9390  -30.1920 C   0  0  0  0  0  0  0  0  0  0  0  0
    7.1300  -32.3210  -32.1090 C   0  0  0  0  0  0  0  0  0  0  0  0
    4.1800  -31.8580  -31.9920 C   0  0  0  0  0  0  0  0  0  0  0  0
    7.4030  -35.3360  -34.6450 C   0  0  0  0  0  0  0  0  0  0  0  0
   13.6860  -33.5940  -30.4450 O   0  0  0  0  0  0  0  0  0  0  0  0
    6.1210  -35.0230  -35.2650 C   0  0  0  0  0  0  0  0  0  0  0  0
    9.3120  -36.7020  -34.4490 C   0  0  0  0  0  0  0  0  0  0  0  0
    9.0330  -34.7110  -33.0800 C   0  0  0  0  0  0  0  0  0  0  0  0
    5.5360  -33.3400  -33.5290 C   0  0  0  0  0  0  0  0  0  0  0  0
   11.4200  -33.0210  -30.0070 C   0  0  0  0  0  0  0  0  0  0  0  0
   11.0460  -33.7590  -32.3340 C   0  0  0  0  0  0  0  0  0  0  0  0
    4.3770  -32.6860  -33.0460 C   0  0  0  0  0  0  0  0  0  0  0  0
   12.2230  -33.6070  -32.1860 C   0  0  0  0  0  0  0  0  0  0  0  0
    5.2910  -34.1090  -34.7770 C   0  0  0  0  0  0  0  0  0  0  0  0
   12.4980  -33.4180  -30.8610 C   0  0  0  0  0  0  0  0  0  0  0  0
    6.8630  -33.3760  -32.9940 C   0  0  0  0  0  0  0  0  0  0  0  0
  1  9  1  0
  2 16  2  0
  3  6  1  0
  4 16  1  1
  4  1  1  0
  7 16  1  0
  7 24  2  0
  8 12  1  0
  8 15  2  0
  9 18  2  0
 10  3  2  0
 11  6  1  0
 12  7  1  0
 14 22  1  0
 14 12  2  0
 15  2  1  0
 17 20  1  0
 17 24  1  0
 18  5  1  0
 19 21  1  0
 19  4  1  0
 20 11  2  0
 21 23  1  0
 22 17  2  0
 23 13  2  0
 23 18  1  0
 24 10  1  0
M  END
$$$$

     RDKit          3D

 24 28  0  0  0  0  0  0  0  0999 V2000
   12.1900  -32.6840  -29.3820 O   0  0  0  0  0  0  0  0  0  0  0  0
    7.6340  -32.8030  -32.9150 C   0  0  0  0  0  0  0  0  0  0  0  0
    8.6330  -34.4810  -32.8840 C   0  0  0  0  0  0  0  0  0  0  0  0
    9.5590  -32.4720  -31.8010 C   0  0  1  0  0  0  0  0  0  0  0  0
   12.7990  -32.4610  -27.9140 C   0  0  0  0  0  0  0  0  0  0  0  0
    8.6030  -33.5180  -33.2420 C   0  0  0  0  0  0  0  0  0  0  0  0
   10.4950  -35.2820  -32.5550 C   0  0  2  0  0  0  0  0  0  0  0  0
   10.7070  -32.5660  -30.4630 C   0  0  2  0  0  0  0  0  0  0  0  0
    9.7210  -35.5870  -33.6240 C   0  0  2  0  0  0  0  0  0  0  0  0
    9.5070  -36.8870  -33.8800 O   0  0  0  0  0  0  0  0  0  0  0  0
   10.6000  -32.7170  -32.7380 O   0  0  0  0  0  0  0  0  0  0  0  0
   11.5050  -35.8010  -34.6550 C   0  0  0  0  0  0  0  0  0  0  0  0
    9.6220  -34.8090  -31.2240 C   0  0  1  0  0  0  0  0  0  0  0  0
   11.8280  -32.7190  -31.6340 C   0  0  0  0  0  0  0  0  0  0  0  0
   10.1920  -31.7520  -28.0130 S   0  0  0  0  0  0  0  0  0  0  0  0
   10.2870  -36.5780  -34.6750 C   0  0  2  0  0  0  0  0  0  0  0  0
   12.6290  -33.7300  -31.9870 C   0  0  0  0  0  0  0  0  0  0  0  0
   10.7980  -32.8710  -29.3150 C   0  0  2  0  0  0  0  0  0  0  0  0
   11.5510  -32.2230  -27.1800 C   0  0  0  0  0  0  0  0  0  0  0  0
   12.3250  -33.9320  -33.3660 O   0  0  0  0  0  0  0  0  0  0  0  0
    9.0450  -34.7760  -34.0820 C   0  0  0  0  0  0  0  0  0  0  0  0
   10.4960  -34.2940  -29.9750 C   0  0  0  0  0  0  0  0  0  0  0  0
    8.8540  -33.3670  -30.7640 C   0  0  0  0  0  0  0  0  0  0  0  0
   11.1330  -33.8450  -33.3590 C   0  0  1  0  0  0  0  0  0  0  0  0
  1 18  1  0
  1  5  1  0
  4 23  1  1
  4  8  1  0
  5 19  1  0
  6  2  2  0
  6  3  1  0
  7  9  1  0
  7 13  1  1
  8 14  1  6
  8 18  1  0
  9 21  1  6
 10  9  1  0
 11  4  1  0
 13 23  1  0
 13 22  1  1
 15 19  1  0
 16 12  1  1
 16 10  1  0
 16  9  1  0
 17 14  1  0
 18 22  1  6
 18 15  1  0
 20 17  1  0
 21  3  1  0
 24 20  1  1
 24 11  1  0
 24  7  1  0
M  END
$$$$

     RDKit          3D

 21 23  0  0  0  0  0  0  0  0999 V2000
   11.6200  -32.6030  -29.0700 O   0  0  0  0  0  0  0  0  0  0  0  0
    9.7670  -32.3520  -30.3190 C   0  0  0  0  0  0  0  0  0  0  0  0
    3.3730  -32.3900  -33.0880 C   0  0  0  0  0  0  0  0  0  0  0  0
   10.7020  -36.1160  -33.4230 O   0  0  0  0  0  0  0  0  0  0  0  0
    7.9490  -34.8520  -34.0290 C   0  0  0  0  0  0  0  0  0  0  0  0
    6.5740  -34.8790  -34.7410 C   0  0  0  0  0  0  0  0  0  0  0  0
   10.9460  -32.9410  -30.1200 C   0  0  0  0  0  0  0  0  0  0  0  0
   10.5540  -34.5400  -31.7070 C   0  0  0  0  0  0  0  0  0  0  0  0
   11.5340  -33.9610  -33.8730 C   0  0  0  0  0  0  0  0  0  0  0  0
    7.0140  -32.4000  -32.9620 O   0  0  0  0  0  0  0  0  0  0  0  0
    8.9330  -34.6120  -33.2150 C   0  0  1  0  0  0  0  0  0  0  0  0
   11.3260  -33.8960  -30.9720 C   0  0  0  0  0  0  0  0  0  0  0  0
   10.4000  -34.7290  -33.0930 C   0  0  1  0  0  0  0  0  0  0  0  0
    8.3710  -35.8450  -34.5980 O   0  0  0  0  0  0  0  0  0  0  0  0
    5.9230  -33.0780  -33.4370 C   0  0  0  0  0  0  0  0  0  0  0  0
    9.3780  -33.8470  -31.9310 C   0  0  0  0  0  0  0  0  0  0  0  0
    4.6580  -32.2770  -32.6450 C   0  0  0  0  0  0  0  0  0  0  0  0
    5.5220  -33.8870  -34.3490 C   0  0  0  0  0  0  0  0  0  0  0  0
    4.1410  -34.0380  -34.8660 C   0  0  0  0  0  0  0  0  0  0  0  0
    3.1600  -33.2110  -34.2680 C   0  0  0  0  0  0  0  0  0  0  0  0
    9.0510  -32.8590  -31.2830 C   0  0  0  0  0  0  0  0  0  0  0  0
  2  7  2  0
  3 17  2  0
  4 13  1  0
  6 18  1  0
  6  5  1  0
  7  1  1  0
  8 12  2  0
 11  5  1  6
 11 13  1  0
 11 16  1  0
 12  7  1  0
 13  9  1  6
 13  8  1  0
 14  5  2  0
 15 10  1  0
 15 17  1  0
 16  8  1  0
 16 21  2  0
 18 15  2  0
 19 18  1  0
 19 20  2  0
 20  3  1  0
 21  2  1  0
M  END
$$$$

     RDKit          3D

 36 42  0  0  0  0  0  0  0  0999 V2000
    5.6460  -33.7470  -39.7820 C   0  0  0  0  0  0  0  0  0  0  0  0
   10.7600  -34.6830  -33.3270 N   0  0  0  0  0  0  0  0  0  0  0  0
    8.8100  -32.9090  -31.2110 C   0  0  1  0  0  0  0  0  0  0  0  0
    9.9500  -32.8920  -30.1120 C   0  0  0  0  0  0  0  0  0  0  0  0
    9.4370  -30.9530  -28.9980 O   0  0  0  0  0  0  0  0  0  0  0  0
    4.2210  -34.7110  -35.0410 C   0  0  0  0  0  0  0  0  0  0  0  0
    5.7860  -34.9910  -37.8630 C   0  0  0  0  0  0  0  0  0  0  0  0
    7.1490  -31.2500  -32.7410 C   0  0  0  0  0  0  0  0  0  0  0  0
   11.6150  -35.5110  -33.9900 C   0  0  0  0  0  0  0  0  0  0  0  0
    6.2870  -33.3070  -33.5640 N   0  0  0  0  0  0  0  0  0  0  0  0
    9.3390  -34.8310  -33.1570 C   0  0  2  0  0  0  0  0  0  0  0  0
    4.9280  -34.3710  -38.7040 N   0  0  0  0  0  0  0  0  0  0  0  0
   10.9920  -36.6480  -34.5700 C   0  0  0  0  0  0  0  0  0  0  0  0
   10.1520  -31.9140  -29.3270 C   0  0  0  0  0  0  0  0  0  0  0  0
    6.6520  -34.1520  -34.0740 N   0  0  0  0  0  0  0  0  0  0  0  0
   10.8040  -33.8510  -30.1290 C   0  0  0  0  0  0  0  0  0  0  0  0
    5.3950  -35.3070  -35.5120 N   0  0  0  0  0  0  0  0  0  0  0  0
    6.0990  -32.0730  -33.1790 C   0  0  0  0  0  0  0  0  0  0  0  0
    9.6080  -36.9600  -34.5350 C   0  0  0  0  0  0  0  0  0  0  0  0
    7.1680  -34.6180  -38.3140 C   0  0  0  0  0  0  0  0  0  0  0  0
    5.2310  -35.8600  -36.8780 C   0  0  1  0  0  0  0  0  0  0  0  0
    3.7810  -35.5620  -37.2520 C   0  0  2  0  0  0  0  0  0  0  0  0
    8.7900  -35.8500  -34.1290 C   0  0  1  0  0  0  0  0  0  0  0  0
   11.9160  -31.6530  -27.5200 O   0  0  0  0  0  0  0  0  0  0  0  0
    8.3160  -31.5430  -31.8390 C   0  0  0  0  0  0  0  0  0  0  0  0
    3.5900  -34.5460  -38.3980 C   0  0  0  0  0  0  0  0  0  0  0  0
   11.9270  -33.4430  -29.0720 C   0  0  0  0  0  0  0  0  0  0  0  0
    6.5080  -35.2680  -34.8520 C   0  0  0  0  0  0  0  0  0  0  0  0
    7.5500  -35.9940  -34.6620 N   0  0  0  0  0  0  0  0  0  0  0  0
   11.3690  -32.2650  -28.5160 C   0  0  0  0  0  0  0  0  0  0  0  0
    2.5970  -34.2890  -38.8230 O   0  0  0  0  0  0  0  0  0  0  0  0
    3.2440  -34.7700  -36.1030 C   0  0  0  0  0  0  0  0  0  0  0  0
    3.9530  -34.5310  -33.9060 O   0  0  0  0  0  0  0  0  0  0  0  0
    7.4800  -33.5550  -33.4430 O   0  0  0  0  0  0  0  0  0  0  0  0
    7.0050  -33.9630  -39.4830 C   0  0  0  0  0  0  0  0  0  0  0  0
    8.9660  -33.6920  -32.3800 C   0  0  0  0  0  0  0  0  0  0  0  0
  1 35  2  0
  1 12  1  0
  2 11  1  0
  3  4  1  6
  4 14  1  0
  6 33  2  0
  8 25  2  3
  9  2  1  0
 10 34  1  0
 10 18  1  0
 11 36  1  6
 12 26  1  0
 12  7  1  0
 13 19  1  0
 13  9  1  0
 14  5  2  0
 14 30  1  0
 15 10  1  0
 15 34  1  0
 16  4  2  0
 16 27  1  0
 17  6  1  0
 18  8  1  0
 20  7  2  0
 21  7  1  0
 21 17  1  1
 22 21  1  0
 22 32  1  1
 23 19  1  1
 23 11  1  0
 25  3  1  0
 26 22  1  0
 27 30  2  0
 28 17  1  0
 28 29  1  0
 28 15  1  0
 29 23  1  0
 30 24  1  0
 31 26  2  0
 32  6  1  0
 35 20  1  0
 36  3  1  0
M  END
$$$$

     RDKit          3D

 28 35  0  0  0  0  0  0  0  0999 V2000
    9.3710  -35.3960  -34.8300 C   0  0  0  0  0  0  0  0  0  0  0  0
    9.2260  -33.9010  -32.4160 C   0  0  1  0  0  0  0  0  0  0  0  0
    4.9700  -32.9510  -33.4920 C   0  0  0  0  0  0  0  0  0  0  0  0
   11.0480  -34.5460  -33.4410 C   0  0  1  0  0  0  0  0  0  0  0  0
    5.9460  -34.8740  -34.7150 C   0  0  1  0  0  0  0  0  0  0  0  0
    5.8190  -31.6180  -31.4570 C   0  0  0  0  0  0  0  0  0  0  0  0
    9.2370  -32.3360  -31.1430 C   0  0  1  0  0  0  0  0  0  0  0  0
   10.9490  -32.0310  -29.2960 C   0  0  0  0  0  0  0  0  0  0  0  0
    8.2840  -35.5860  -34.7520 C   0  0  0  0  0  0  0  0  0  0  0  0
    7.9200  -33.2720  -33.1580 C   0  0  0  0  0  0  0  0  0  0  0  0
    4.0340  -34.8710  -35.6980 C   0  0  0  0  0  0  0  0  0  0  0  0
    8.0610  -36.3570  -34.2120 C   0  0  0  0  0  0  0  0  0  0  0  0
    6.9130  -35.1750  -34.8570 C   0  0  0  0  0  0  0  0  0  0  0  0
    5.9030  -32.3860  -32.5260 C   0  0  0  0  0  0  0  0  0  0  0  0
    9.6440  -31.6920  -29.8730 C   0  0  0  0  0  0  0  0  0  0  0  0
    7.0770  -32.8230  -32.6750 C   0  0  0  0  0  0  0  0  0  0  0  0
    7.7820  -32.1900  -31.5320 C   0  0  0  0  0  0  0  0  0  0  0  0
   11.7200  -33.8080  -33.0410 C   0  0  1  0  0  0  0  0  0  0  0  0
    6.9980  -31.4470  -30.8340 C   0  0  0  0  0  0  0  0  0  0  0  0
    6.9080  -35.1940  -36.4620 C   0  0  0  0  0  0  0  0  0  0  0  0
    4.8970  -34.5120  -36.5610 C   0  0  0  0  0  0  0  0  0  0  0  0
    4.9680  -34.0010  -34.5170 C   0  0  0  0  0  0  0  0  0  0  0  0
   10.4340  -34.0880  -32.6570 C   0  0  2  0  0  0  0  0  0  0  0  0
    6.4090  -35.3980  -35.6440 C   0  0  2  0  0  0  0  0  0  0  0  0
   11.3180  -33.4470  -31.6070 C   0  0  1  0  0  0  0  0  0  0  0  0
   11.6090  -33.2990  -30.0480 C   0  0  0  0  0  0  0  0  0  0  0  0
   10.2000  -32.7700  -32.2540 C   0  0  2  0  0  0  0  0  0  0  0  0
   10.5660  -35.3360  -34.3510 C   0  0  0  0  0  0  0  0  0  0  0  0
  1  9  1  0
  1 28  1  0
  2 10  1  6
  2 27  1  0
  3 14  1  0
  4 28  1  6
 18  4  1  1
 23  4  1  1
  5 22  1  0
  6 19  1  0
  7 15  1  6
  9 12  2  0
 10 16  1  0
 11 22  1  0
 13  9  1  0
  5 13  1  6
 14  6  2  0
 15  8  1  0
 16 14  1  0
 16 17  2  0
 17  7  1  0
 17 19  1  0
 18 23  1  0
 18 25  1  0
 24 20  1  6
 21 11  1  0
 22  3  2  3
 23  2  1  0
 23 27  1  0
 24 13  1  0
 24  5  1  0
 25 26  1  6
 26  8  1  0
 27 25  1  0
 27  7  1  6
M  END
$$$$

     RDKit          3D

 20 23  0  0  0  0  0  0  0  0999 V2000
    8.0240  -33.6920  -33.1040 C   0  0  1  0  0  0  0  0  0  0  0  0
    8.0990  -34.4380  -33.7220 C   0  0  0  0  0  0  0  0  0  0  0  0
    9.5890  -34.2080  -32.7680 C   0  0  0  0  0  0  0  0  0  0  0  0
    4.5130  -34.2650  -35.3360 O   0  0  0  0  0  0  0  0  0  0  0  0
    8.6470  -32.7100  -31.4670 C   0  0  1  0  0  0  0  0  0  0  0  0
    5.4600  -34.6080  -35.0800 C   0  0  0  0  0  0  0  0  0  0  0  0
    5.1000  -33.4590  -34.2420 C   0  0  0  0  0  0  0  0  0  0  0  0
    7.5550  -34.9820  -34.7980 C   0  0  0  0  0  0  0  0  0  0  0  0
    6.8890  -34.0350  -33.3400 C   0  0  2  0  0  0  0  0  0  0  0  0
    8.7980  -33.2680  -32.6380 C   0  0  0  0  0  0  0  0  0  0  0  0
   10.6960  -34.4910  -32.6030 C   0  0  0  0  0  0  0  0  0  0  0  0
    9.7170  -33.0680  -30.5550 C   0  0  0  0  0  0  0  0  0  0  0  0
    6.3100  -35.2370  -35.1290 C   0  0  0  0  0  0  0  0  0  0  0  0
    8.5720  -34.8710  -34.1410 C   0  0  0  0  0  0  0  0  0  0  0  0
    6.0460  -32.0210  -32.3780 O   0  0  0  0  0  0  0  0  0  0  0  0
   10.4510  -32.2240  -29.7940 N   0  0  0  0  0  0  0  0  0  0  0  0
    6.3290  -33.4420  -33.9560 C   0  0  2  0  0  0  0  0  0  0  0  0
    7.9240  -31.8970  -30.8320 F   0  0  0  0  0  0  0  0  0  0  0  0
    6.8080  -32.7480  -33.0690 C   0  0  1  0  0  0  0  0  0  0  0  0
    9.7320  -35.0730  -33.4790 C   0  0  2  0  0  0  0  0  0  0  0  0
  1 19  1  0
  1 10  1  1
  2  1  1  0
  3 11  1  0
  4  6  2  0
  5 18  1  6
  5 12  1  0
  6  7  1  0
 17  7  1  1
  8 14  2  0
  9  1  1  0
  9 19  1  0
 10  5  1  0
 12 16  1  0
 13  6  1  0
 13  8  2  0
 14  2  1  0
 14 20  1  0
  9 17  1  6
 17 19  1  0
 19 15  1  1
 20  3  1  1
 20 11  1  0
M  END
$$$$

     RDKit          3D

 25 28  0  0  0  0  0  0  0  0999 V2000
    8.1470  -35.4870  -36.2670 C   0  0  0  0  0  0  0  0  0  0  0  0
    4.4970  -32.7420  -32.7780 C   0  0  0  0  0  0  0  0  0  0  0  0
    5.9660  -32.9420  -32.9040 C   0  0  0  0  0  0  0  0  0  0  0  0
    5.8150  -35.4640  -37.1280 C   0  0  0  0  0  0  0  0  0  0  0  0
    8.3280  -33.1980  -32.1560 C   0  0  0  0  0  0  0  0  0  0  0  0
    8.2680  -34.7010  -33.4130 N   0  0  0  0  0  0  0  0  0  0  0  0
   10.9670  -36.3750  -33.6090 O   0  0  0  0  0  0  0  0  0  0  0  0
    4.2810  -31.9140  -31.6950 C   0  0  0  0  0  0  0  0  0  0  0  0
   10.2180  -33.9050  -32.2550 C   0  0  0  0  0  0  0  0  0  0  0  0
    5.3890  -35.6260  -35.8370 C   0  0  0  0  0  0  0  0  0  0  0  0
    9.5660  -34.6480  -33.1100 C   0  0  0  0  0  0  0  0  0  0  0  0
    6.5980  -31.4540  -31.0850 C   0  0  0  0  0  0  0  0  0  0  0  0
   10.3350  -35.5570  -33.8130 C   0  0  0  0  0  0  0  0  0  0  0  0
    7.5920  -35.2750  -34.9270 C   0  0  0  0  0  0  0  0  0  0  0  0
    9.4910  -32.7050  -31.3280 C   0  0  0  0  0  0  0  0  0  0  0  0
    5.2420  -31.3160  -30.9830 N   0  0  0  0  0  0  0  0  0  0  0  0
   11.3110  -34.1610  -31.2440 C   0  0  0  0  0  0  0  0  0  0  0  0
    4.3540  -34.0180  -38.6330 C   0  0  0  0  0  0  0  0  0  0  0  0
    6.2810  -35.4590  -34.8490 C   0  0  0  0  0  0  0  0  0  0  0  0
    7.3370  -35.5160  -37.3550 C   0  0  0  0  0  0  0  0  0  0  0  0
   10.8330  -36.0370  -34.4120 O   0  0  0  0  0  0  0  0  0  0  0  0
   10.3130  -32.4180  -30.3010 C   0  0  0  0  0  0  0  0  0  0  0  0
    4.5310  -35.1920  -37.8800 O   0  0  0  0  0  0  0  0  0  0  0  0
    6.9800  -32.4560  -32.0550 C   0  0  0  0  0  0  0  0  0  0  0  0
   11.3640  -33.2610  -30.2580 C   0  0  0  0  0  0  0  0  0  0  0  0
  1 14  2  0
  2  8  2  0
  3  2  1  0
  3 24  2  0
  4 10  1  0
  5 24  1  0
  5 15  1  0
  8 16  1  0
  9 15  2  0
  9 17  1  0
 10 19  2  0
 11  6  1  0
 11  9  1  0
 12 16  2  0
 13  7  1  0
 13 11  1  0
 14 19  1  0
 14  6  1  0
 15 22  1  0
 17 25  1  0
 18 23  1  0
 20  4  2  0
 20  1  1  0
 21 13  1  0
 21  7  1  0
 22 25  2  0
 23  4  1  0
 24 12  1  0
M  END
$$$$

     RDKit          3D

 19 21  0  0  0  0  0  0  0  0999 V2000
    5.4990  -33.6950  -34.1210 C   0  0  0  0  0  0  0  0  0  0  0  0
   12.2580  -34.5270  -33.1390 O   0  0  0  0  0  0  0  0  0  0  0  0
    5.8700  -34.7230  -34.9100 C   0  0  0  0  0  0  0  0  0  0  0  0
    9.6100  -37.0210  -33.3510 C   0  0  0  0  0  0  0  0  0  0  0  0
    8.8850  -34.0850  -32.8160 C   0  0  0  0  0  0  0  0  0  0  0  0
    9.8710  -35.8610  -34.0080 O   0  0  0  0  0  0  0  0  0  0  0  0
    4.2090  -33.0180  -33.9000 C   0  0  0  0  0  0  0  0  0  0  0  0
    7.2780  -35.0920  -34.7660 C   0  0  0  0  0  0  0  0  0  0  0  0
   11.2020  -34.3120  -32.6960 C   0  0  0  0  0  0  0  0  0  0  0  0
    7.0930  -32.4840  -32.2920 C   0  0  0  0  0  0  0  0  0  0  0  0
    4.1560  -32.6880  -32.4010 C   0  0  0  0  0  0  0  0  0  0  0  0
    8.1780  -32.4800  -31.5520 C   0  0  0  0  0  0  0  0  0  0  0  0
   11.3240  -33.7800  -31.2090 C   0  0  0  0  0  0  0  0  0  0  0  0
    9.9050  -33.8270  -30.7160 C   0  0  0  0  0  0  0  0  0  0  0  0
    7.8070  -34.1590  -33.5680 C   0  0  0  0  0  0  0  0  0  0  0  0
    6.7200  -33.3250  -33.3510 C   0  0  1  0  0  0  0  0  0  0  0  0
    4.9370  -35.3440  -35.8170 C   0  0  0  0  0  0  0  0  0  0  0  0
    9.0210  -33.4220  -31.7230 C   0  0  0  0  0  0  0  0  0  0  0  0
    9.9370  -34.7500  -33.1380 C   0  0  1  0  0  0  0  0  0  0  0  0
  1  7  1  0
  1 16  1  0
  2  9  2  0
  3  8  1  0
  3  1  2  0
  5 18  2  0
  6  4  1  0
  7 11  1  0
  8 15  2  0
  9 13  1  0
 10 12  2  0
 13 14  1  0
 15 16  1  0
 15  5  1  0
 16 10  1  1
 17  3  1  0
 18 12  1  0
 18 14  1  0
 19  6  1  6
 19  5  1  0
 19  9  1  0
M  END
$$$$

     RDKit          3D

 39 46  0  0  0  0  0  0  0  0999 V2000
   11.8430  -33.0970  -31.0190 C   0  0  2  0  0  0  0  0  0  0  0  0
    8.1930  -33.3530  -32.7710 C   0  0  0  0  0  0  0  0  0  0  0  0
   10.9530  -36.2170  -34.0630 C   0  0  0  0  0  0  0  0  0  0  0  0
   10.0110  -31.0160  -28.4560 C   0  0  0  0  0  0  0  0  0  0  0  0
    0.2180  -31.2680  -32.3390 C   0  0  0  0  0  0  0  0  0  0  0  0
    3.7050  -32.3890  -34.1430 O   0  0  0  0  0  0  0  0  0  0  0  0
   12.6290  -32.6840  -32.0480 C   0  0  0  0  0  0  0  0  0  0  0  0
    5.9040  -35.6220  -35.7320 C   0  0  0  0  0  0  0  0  0  0  0  0
   12.9430  -37.7960  -34.8990 N   0  0  0  0  0  0  0  0  0  0  0  0
    7.6230  -32.2660  -31.8630 C   0  0  0  0  0  0  0  0  0  0  0  0
    1.3710  -31.7130  -33.3260 C   0  0  1  0  0  0  0  0  0  0  0  0
   13.0360  -36.6080  -34.7720 C   0  0  0  0  0  0  0  0  0  0  0  0
    8.0990  -35.4250  -34.7390 C   0  0  0  0  0  0  0  0  0  0  0  0
    3.3840  -32.5120  -32.9290 C   0  0  2  0  0  0  0  0  0  0  0  0
    4.4010  -32.7520  -33.3460 C   0  0  2  0  0  0  0  0  0  0  0  0
   10.4460  -33.2680  -31.5600 C   0  0  2  0  0  0  0  0  0  0  0  0
   12.0080  -32.7070  -29.7770 C   0  0  1  0  0  0  0  0  0  0  0  0
    6.2690  -33.9370  -33.8770 C   0  0  0  0  0  0  0  0  0  0  0  0
    5.5500  -34.6400  -34.9780 C   0  0  0  0  0  0  0  0  0  0  0  0
    1.3150  -30.4100  -32.6380 C   0  0  0  0  0  0  0  0  0  0  0  0
   12.3790  -32.8550  -27.6650 C   0  0  0  0  0  0  0  0  0  0  0  0
    7.4150  -36.1310  -35.7350 C   0  0  0  0  0  0  0  0  0  0  0  0
    8.0780  -31.6850  -31.0790 O   0  0  0  0  0  0  0  0  0  0  0  0
    6.3050  -32.1740  -32.1420 N   0  0  0  0  0  0  0  0  0  0  0  0
   10.7540  -37.5900  -34.1660 C   0  0  0  0  0  0  0  0  0  0  0  0
    2.1010  -32.6680  -32.7990 N   0  0  0  0  0  0  0  0  0  0  0  0
    5.6870  -32.9990  -32.9450 C   0  0  0  0  0  0  0  0  0  0  0  0
   11.1230  -34.7030  -28.5810 C   0  0  0  0  0  0  0  0  0  0  0  0
   11.7810  -38.2930  -34.5970 C   0  0  0  0  0  0  0  0  0  0  0  0
   10.0130  -32.2090  -29.1680 O   0  0  0  0  0  0  0  0  0  0  0  0
   10.3790  -34.2870  -32.7400 C   0  0  0  0  0  0  0  0  0  0  0  0
   12.8120  -33.6940  -30.0710 O   0  0  0  0  0  0  0  0  0  0  0  0
    7.6660  -34.3270  -33.8290 C   0  0  0  0  0  0  0  0  0  0  0  0
    8.7450  -35.4110  -34.0190 C   0  0  0  0  0  0  0  0  0  0  0  0
   12.2640  -31.3980  -29.5690 C   0  0  0  0  0  0  0  0  0  0  0  0
   12.1860  -35.7880  -34.4040 C   0  0  0  0  0  0  0  0  0  0  0  0
   11.2010  -33.0420  -28.6410 C   0  0  2  0  0  0  0  0  0  0  0  0
    9.5330  -33.4560  -32.6160 C   0  0  1  0  0  0  0  0  0  0  0  0
   10.2430  -35.2750  -33.5340 C   0  0  0  0  0  0  0  0  0  0  0  0
  1  7  1  6
  1 32  1  0
  1 17  1  0
  2 10  1  0
  3 39  1  0
  6 15  1  0
  6 14  1  0
  8 19  1  0
  9 12  2  0
  9 29  1  0
 10 23  2  0
 11 26  1  1
 11 20  1  0
 11  5  1  0
 12 36  1  0
 13 34  2  0
 13 33  1  0
 14 26  1  6
 15 27  1  1
 15 14  1  0
 16 31  1  1
 16  1  1  0
 17 35  1  6
 17 37  1  0
 18 33  1  0
 18 27  1  0
 19 18  2  0
 20  5  1  0
 22  8  2  0
 22 13  1  0
 24 10  1  0
 25  3  1  0
 27 24  2  0
 29 25  2  0
 30 37  1  0
 30  4  1  0
 31 38  1  0
 32 17  1  0
 33  2  2  0
 34 39  1  0
 36  3  2  0
 37 28  1  6
 37 21  1  0
 38  2  1  1
 38 16  1  0
 39 31  2  0
M  END
$$$$

     RDKit          3D

 28 31  0  0  0  0  0  0  0  0999 V2000
    6.5290  -34.5790  -36.8380 O   0  0  0  0  0  0  0  0  0  0  0  0
    4.3890  -33.7190  -34.2940 C   0  0  1  0  0  0  0  0  0  0  0  0
    5.5480  -31.4580  -31.1260 C   0  0  0  0  0  0  0  0  0  0  0  0
    4.1360  -31.6110  -31.2090 C   0  0  0  0  0  0  0  0  0  0  0  0
    8.4670  -36.1900  -34.5460 C   0  0  1  0  0  0  0  0  0  0  0  0
   11.6900  -33.7100  -29.9370 C   0  0  0  0  0  0  0  0  0  0  0  0
   10.4050  -33.0850  -31.4250 N   0  0  0  0  0  0  0  0  0  0  0  0
   10.9140  -33.1880  -30.8430 C   0  0  0  0  0  0  0  0  0  0  0  0
   10.4410  -35.8440  -34.0520 C   0  0  0  0  0  0  0  0  0  0  0  0
    5.9190  -32.6790  -32.7960 N   0  0  0  0  0  0  0  0  0  0  0  0
    7.6220  -32.1780  -31.4060 C   0  0  0  0  0  0  0  0  0  0  0  0
   12.0060  -35.4920  -34.1810 O   0  0  0  0  0  0  0  0  0  0  0  0
    9.0220  -33.2720  -32.2710 C   0  0  0  0  0  0  0  0  0  0  0  0
    3.5220  -33.7730  -35.6700 C   0  0  0  0  0  0  0  0  0  0  0  0
    5.7100  -34.5120  -34.6610 O   0  0  0  0  0  0  0  0  0  0  0  0
    5.7720  -35.1510  -35.9030 C   0  0  2  0  0  0  0  0  0  0  0  0
    8.3780  -34.9680  -33.5850 C   0  0  0  0  0  0  0  0  0  0  0  0
    3.8090  -32.3960  -32.2950 C   0  0  0  0  0  0  0  0  0  0  0  0
    6.3630  -36.5720  -35.3760 C   0  0  0  0  0  0  0  0  0  0  0  0
    4.7670  -32.8880  -33.2050 C   0  0  0  0  0  0  0  0  0  0  0  0
    7.4710  -36.3260  -35.4640 O   0  0  0  0  0  0  0  0  0  0  0  0
    9.5260  -36.7940  -34.6640 O   0  0  0  0  0  0  0  0  0  0  0  0
    4.3000  -34.9160  -36.4330 C   0  0  0  0  0  0  0  0  0  0  0  0
    8.9110  -34.2180  -33.1020 C   0  0  2  0  0  0  0  0  0  0  0  0
    9.9410  -35.1090  -33.2040 C   0  0  0  0  0  0  0  0  0  0  0  0
    6.6090  -32.2690  -31.8840 C   0  0  0  0  0  0  0  0  0  0  0  0
    8.2770  -31.7220  -30.2220 O   0  0  0  0  0  0  0  0  0  0  0  0
    8.2820  -32.9890  -32.6630 N   0  0  0  0  0  0  0  0  0  0  0  0
  2 14  1  6
  2 20  1  0
  4  3  2  0
  5 17  1  0
  7  8  1  0
  8  6  1  0
  9 25  1  0
 10 26  2  0
 11 27  2  0
 12  9  2  0
 13  7  1  0
 15  2  1  0
 16  1  1  6
 16 19  1  0
 16 15  1  0
 18  4  1  0
 20 10  1  0
 20 18  2  0
 21 19  1  0
  5 21  1  6
 22  5  1  0
 22  9  1  0
 23 16  1  0
 23 14  1  0
 24 17  1  0
 24 13  1  0
 24 25  1  1
 26 11  1  0
 26  3  1  0
 28 13  2  3
 28 11  1  0
M  END
$$$$

     RDKit          3D

 19 21  0  0  0  0  0  0  0  0999 V2000
    8.3600  -32.1100  -31.7080 C   0  0  0  0  0  0  0  0  0  0  0  0
    7.2760  -34.5930  -34.7980 C   0  0  0  0  0  0  0  0  0  0  0  0
    6.1200  -32.2060  -31.9360 C   0  0  2  0  0  0  0  0  0  0  0  0
    6.2150  -34.2740  -35.4050 C   0  0  2  0  0  0  0  0  0  0  0  0
    7.6790  -35.9400  -35.1070 O   0  0  0  0  0  0  0  0  0  0  0  0
    4.1600  -35.3130  -35.6730 C   0  0  0  0  0  0  0  0  0  0  0  0
    5.8230  -32.1750  -30.6790 C   0  0  0  0  0  0  0  0  0  0  0  0
    4.3560  -32.2150  -30.5800 C   0  0  0  0  0  0  0  0  0  0  0  0
    5.5160  -33.5890  -34.2960 C   0  0  2  0  0  0  0  0  0  0  0  0
    7.2120  -31.4180  -32.2930 C   0  0  0  0  0  0  0  0  0  0  0  0
    8.5900  -32.2980  -31.4280 C   0  0  0  0  0  0  0  0  0  0  0  0
    4.0150  -32.8950  -32.7970 C   0  0  0  0  0  0  0  0  0  0  0  0
    5.1740  -32.9370  -33.0790 C   0  0  0  0  0  0  0  0  0  0  0  0
    3.8580  -33.8570  -34.8130 C   0  0  2  0  0  0  0  0  0  0  0  0
    3.4600  -32.5650  -31.5690 C   0  0  0  0  0  0  0  0  0  0  0  0
    8.1810  -32.9470  -32.2720 C   0  0  0  0  0  0  0  0  0  0  0  0
    3.0280  -33.4290  -33.7270 N   0  0  0  0  0  0  0  0  0  0  0  0
    8.8620  -31.8410  -30.0620 O   0  0  0  0  0  0  0  0  0  0  0  0
    5.4740  -35.2620  -36.2610 C   0  0  0  0  0  0  0  0  0  0  0  0
  1 11  1  0
  3 10  1  6
  3  7  1  0
  4  2  1  1
  4  9  1  0
  5  2  1  0
  7  8  1  0
  9 13  1  1
 10  1  1  0
 11 18  1  0
 12 15  1  0
 13 12  2  0
 13  3  1  0
 14  6  1  1
 14  9  1  0
 14 17  1  0
 15  8  2  0
 16  1  2  0
 17 12  1  0
 19  6  1  0
 19  4  1  0
M  END
$$$$

     RDKit          3D

 24 27  0  0  0  0  0  0  0  0999 V2000
    7.0680  -32.2430  -31.9950 C   0  0  0  0  0  0  0  0  0  0  0  0
    4.6600  -31.8510  -31.9030 N   0  0  0  0  0  0  0  0  0  0  0  0
    5.9820  -31.2930  -31.3610 S   0  0  0  0  0  0  0  0  0  0  0  0
    7.3070  -35.8040  -35.0470 C   0  0  0  0  0  0  0  0  0  0  0  0
   12.0690  -32.8770  -29.0030 C   0  0  0  0  0  0  0  0  0  0  0  0
    8.1480  -33.8990  -33.2700 C   0  0  0  0  0  0  0  0  0  0  0  0
   10.0750  -31.5960  -29.1580 C   0  0  0  0  0  0  0  0  0  0  0  0
    9.4630  -33.9990  -32.9490 C   0  0  0  0  0  0  0  0  0  0  0  0
   11.1940  -31.9960  -28.4760 C   0  0  0  0  0  0  0  0  0  0  0  0
    9.5130  -35.2370  -34.8680 C   0  0  0  0  0  0  0  0  0  0  0  0
    9.3250  -35.0820  -33.8220 C   0  0  2  0  0  0  0  0  0  0  0  0
    4.8850  -32.7240  -32.9310 C   0  0  0  0  0  0  0  0  0  0  0  0
    6.3990  -35.1600  -34.5290 C   0  0  0  0  0  0  0  0  0  0  0  0
   11.9290  -33.4210  -30.2530 C   0  0  0  0  0  0  0  0  0  0  0  0
    8.2740  -35.8030  -34.4120 C   0  0  0  0  0  0  0  0  0  0  0  0
   10.2760  -33.4080  -32.1230 C   0  0  2  0  0  0  0  0  0  0  0  0
    3.4660  -31.5680  -31.2880 C   0  0  0  0  0  0  0  0  0  0  0  0
   11.3920  -33.8210  -32.6700 O   0  0  0  0  0  0  0  0  0  0  0  0
    6.9200  -34.1070  -33.7730 C   0  0  0  0  0  0  0  0  0  0  0  0
    6.2110  -33.0850  -32.9340 C   0  0  1  0  0  0  0  0  0  0  0  0
    9.8270  -32.1930  -30.3590 C   0  0  0  0  0  0  0  0  0  0  0  0
   10.4960  -35.9290  -33.9040 C   0  0  0  0  0  0  0  0  0  0  0  0
   10.7280  -33.0050  -30.8670 C   0  0  0  0  0  0  0  0  0  0  0  0
    8.4800  -32.0090  -31.2480 C   0  0  0  0  0  0  0  0  0  0  0  0
  1  3  1  0
  1 24  2  0
  2  3  1  0
  2 17  1  0
  4 13  1  0
  4 15  1  0
  5  9  2  0
  6  8  2  0
  7  9  1  0
  8 16  1  0
 11 10  1  6
 11  8  1  0
 12  2  1  0
 13 19  1  0
 14  5  1  0
 15 11  1  0
 16 18  1  1
 16 23  1  0
 19  6  2  0
 19 20  1  0
 20 12  1  6
 20  1  1  0
 21  7  1  0
 22 11  1  0
 23 21  1  0
 23 14  2  0
 24 21  2  0
M  END
$$$$

     RDKit          3D

 39 43  0  0  0  0  0  0  0  0999 V2000
    5.0580  -33.5830  -38.5540 C   0  0  0  0  0  0  0  0  0  0  0  0
    4.0660  -34.0170  -39.2860 N   0  0  0  0  0  0  0  0  0  0  0  0
   10.5510  -35.5980  -34.7310 O   0  0  0  0  0  0  0  0  0  0  0  0
   12.1260  -33.0830  -29.2840 C   0  0  0  0  0  0  0  0  0  0  0  0
   11.8150  -36.3380  -34.5730 C   0  0  0  0  0  0  0  0  0  0  0  0
    9.2400  -37.2480  -34.1760 O   0  0  0  0  0  0  0  0  0  0  0  0
    3.1440  -35.1790  -37.4450 C   0  0  0  0  0  0  0  0  0  0  0  0
   10.5810  -33.5310  -32.9970 C   0  0  0  0  0  0  0  0  0  0  0  0
    4.8970  -32.6530  -32.1840 C   0  0  0  0  0  0  0  0  0  0  0  0
    5.0700  -31.0890  -32.0450 C   0  0  0  0  0  0  0  0  0  0  0  0
    6.6090  -34.4150  -34.7170 C   0  0  2  0  0  0  0  0  0  0  0  0
    9.8200  -32.7620  -30.4750 C   0  0  0  0  0  0  0  0  0  0  0  0
    7.0600  -33.2170  -33.0910 C   0  0  2  0  0  0  0  0  0  0  0  0
   14.1580  -33.7570  -28.2130 C   0  0  0  0  0  0  0  0  0  0  0  0
   13.8810  -32.9730  -27.0920 C   0  0  0  0  0  0  0  0  0  0  0  0
    9.5740  -36.0780  -33.9310 C   0  0  0  0  0  0  0  0  0  0  0  0
    9.3150  -32.0610  -29.5560 O   0  0  0  0  0  0  0  0  0  0  0  0
    6.1410  -31.0020  -31.1410 O   0  0  0  0  0  0  0  0  0  0  0  0
    7.1330  -34.0970  -33.8650 O   0  0  0  0  0  0  0  0  0  0  0  0
    8.9250  -33.0800  -31.6000 N   0  0  0  0  0  0  0  0  0  0  0  0
    7.7720  -32.6300  -31.8360 C   0  0  2  0  0  0  0  0  0  0  0  0
    5.2660  -34.0640  -34.4020 C   0  0  2  0  0  0  0  0  0  0  0  0
    9.5080  -34.0700  -32.4050 C   0  0  0  0  0  0  0  0  0  0  0  0
   11.6240  -33.7700  -31.6050 C   0  0  0  0  0  0  0  0  0  0  0  0
    3.1970  -34.7150  -38.8050 C   0  0  0  0  0  0  0  0  0  0  0  0
    7.0130  -31.8650  -31.0240 C   0  0  0  0  0  0  0  0  0  0  0  0
    9.0310  -35.3140  -32.8400 C   0  0  0  0  0  0  0  0  0  0  0  0
   14.8150  -32.7920  -26.0370 C   0  0  0  0  0  0  0  0  0  0  0  0
   11.0040  -33.2710  -30.4720 C   0  0  1  0  0  0  0  0  0  0  0  0
    4.2960  -34.7620  -36.5200 C   0  0  0  0  0  0  0  0  0  0  0  0
    4.3060  -35.1270  -35.2990 N   0  0  0  0  0  0  0  0  0  0  0  0
   12.7370  -32.1860  -27.1210 C   0  0  0  0  0  0  0  0  0  0  0  0
   15.2850  -31.6530  -25.9830 O   0  0  0  0  0  0  0  0  0  0  0  0
   15.0320  -33.7720  -25.2090 O   0  0  0  0  0  0  0  0  0  0  0  0
    5.2160  -34.0000  -37.1940 C   0  0  0  0  0  0  0  0  0  0  0  0
    5.6920  -32.9230  -33.5050 C   0  0  1  0  0  0  0  0  0  0  0  0
   11.8460  -32.2630  -28.2100 C   0  0  0  0  0  0  0  0  0  0  0  0
    6.9500  -35.4960  -35.2060 O   0  0  0  0  0  0  0  0  0  0  0  0
   13.3150  -33.7820  -29.2920 C   0  0  0  0  0  0  0  0  0  0  0  0
  1 35  2  0
  2 25  2  0
  2  1  1  0
  3  5  1  0
  3 16  1  0
  4 37  1  0
  6 16  2  0
  7 30  2  0
  8 23  1  0
  8 24  1  0
  9 10  1  0
 10 18  1  0
 11 38  1  1
 11 22  1  0
 11 19  1  0
 12 29  1  0
 12 17  2  0
 13 19  1  1
 13 21  1  0
 14 15  2  0
 15 28  1  0
 16 27  1  0
 18 26  1  0
 20 12  1  0
 21 20  1  1
 21 26  1  0
 22 31  1  6
 22 36  1  0
 23 20  1  0
 24 29  1  0
 25  7  1  0
 27 23  2  3
 28 33  2  0
 28 34  1  0
 29  4  1  6
 30 31  1  0
 32 15  1  0
 35 30  1  0
 36 13  1  0
 36  9  1  1
 37 32  2  0
 39  4  2  0
 39 14  1  0
M  END
$$$$

     RDKit          3D

 34 40  0  0  0  0  0  0  0  0999 V2000
    2.7300  -35.0150  -37.6410 C   0  0  0  0  0  0  0  0  0  0  0  0
    3.0740  -35.1180  -36.1040 C   0  0  0  0  0  0  0  0  0  0  0  0
    6.7160  -31.7340  -32.2680 C   0  0  0  0  0  0  0  0  0  0  0  0
   11.1730  -33.3970  -30.0580 C   0  0  1  0  0  0  0  0  0  0  0  0
    8.7670  -32.3690  -30.9850 C   0  0  0  0  0  0  0  0  0  0  0  0
   11.7320  -36.3860  -33.9350 C   0  0  1  0  0  0  0  0  0  0  0  0
    5.2720  -34.2130  -34.1780 C   0  0  0  0  0  0  0  0  0  0  0  0
    9.4970  -32.9890  -31.9260 C   0  0  1  0  0  0  0  0  0  0  0  0
    5.5290  -35.1960  -35.1820 C   0  0  0  0  0  0  0  0  0  0  0  0
   10.9030  -33.2700  -31.4340 C   0  0  0  0  0  0  0  0  0  0  0  0
    6.3490  -33.6920  -33.4980 C   0  0  0  0  0  0  0  0  0  0  0  0
   12.5210  -33.8580  -29.7240 O   0  0  0  0  0  0  0  0  0  0  0  0
    7.3360  -31.6330  -31.1210 C   0  0  0  0  0  0  0  0  0  0  0  0
    8.9410  -33.7450  -33.0720 C   0  0  2  0  0  0  0  0  0  0  0  0
   11.0700  -35.0780  -33.5370 C   0  0  2  0  0  0  0  0  0  0  0  0
    9.4560  -37.2860  -34.5550 C   0  0  0  0  0  0  0  0  0  0  0  0
    3.6980  -32.8670  -32.7790 C   0  0  0  0  0  0  0  0  0  0  0  0
    4.2830  -35.8120  -35.9790 C   0  0  0  0  0  0  0  0  0  0  0  0
    6.0060  -32.6140  -32.6260 C   0  0  0  0  0  0  0  0  0  0  0  0
    3.4930  -34.7500  -38.5730 O   0  0  0  0  0  0  0  0  0  0  0  0
    1.3860  -35.3630  -38.0140 O   0  0  0  0  0  0  0  0  0  0  0  0
    3.9650  -33.8230  -33.7340 C   0  0  0  0  0  0  0  0  0  0  0  0
    9.6840  -31.8540  -29.8370 O   0  0  0  0  0  0  0  0  0  0  0  0
    7.8170  -35.3380  -34.4430 C   0  0  0  0  0  0  0  0  0  0  0  0
    7.6460  -34.1130  -33.6340 C   0  0  0  0  0  0  0  0  0  0  0  0
   10.2650  -32.9200  -29.1710 C   0  0  0  0  0  0  0  0  0  0  0  0
    1.0800  -34.4900  -39.2810 C   0  0  0  0  0  0  0  0  0  0  0  0
   11.9550  -35.6110  -32.6900 C   0  0  0  0  0  0  0  0  0  0  0  0
   10.7070  -37.5370  -33.8330 C   0  0  0  0  0  0  0  0  0  0  0  0
    9.6880  -35.1510  -33.1290 C   0  0  2  0  0  0  0  0  0  0  0  0
    9.0670  -36.0100  -34.0450 C   0  0  0  0  0  0  0  0  0  0  0  0
    6.7450  -35.7210  -35.2900 C   0  0  0  0  0  0  0  0  0  0  0  0
   11.7750  -33.0350  -32.2670 O   0  0  0  0  0  0  0  0  0  0  0  0
    4.7580  -32.2790  -32.2290 C   0  0  0  0  0  0  0  0  0  0  0  0
  1  2  1  0
  2 18  1  0
  3 13  1  0
  4 12  1  6
  4 26  1  0
  5 23  1  0
  6 29  1  1
  6 15  1  0
  6 28  1  0
  7 22  2  0
  7 11  1  0
  8 10  1  1
  8  5  1  0
  9  7  1  0
 10  4  1  0
 11 19  2  0
 13  5  2  3
 14 25  1  1
 14  8  1  0
 15 30  1  0
 15 28  1  1
 16 31  1  0
 16 29  1  0
 17 34  2  0
 18  9  1  0
 19  3  1  0
 19 34  1  0
 20  1  2  0
 21  1  1  0
 22 17  1  0
 23 26  1  0
 24 31  1  0
 24 25  2  0
 25 11  1  0
 27 21  1  0
 30 14  1  0
 30 31  1  6
 32  9  2  0
 32 24  1  0
 33 10  2  0
M  END
$$$$

     RDKit          3D

 23 26  0  0  0  0  0  0  0  0999 V2000
    5.7970  -34.6070  -34.5370 C   0  0  0  0  0  0  0  0  0  0  0  0
    6.4330  -32.3640  -32.3580 C   0  0  0  0  0  0  0  0  0  0  0  0
   10.9600  -35.4150  -33.8750 C   0  0  2  0  0  0  0  0  0  0  0  0
    9.2240  -34.9940  -33.2010 C   0  0  0  0  0  0  0  0  0  0  0  0
   11.3450  -36.1870  -34.3790 C   0  0  0  0  0  0  0  0  0  0  0  0
   11.7130  -34.3670  -32.9560 S   0  0  2  0  0  0  0  0  0  0  0  0
    6.9910  -34.0200  -33.7230 C   0  0  0  0  0  0  0  0  0  0  0  0
    9.6820  -33.2680  -32.3150 C   0  0  0  0  0  0  0  0  0  0  0  0
    6.9560  -32.8520  -32.7430 C   0  0  0  0  0  0  0  0  0  0  0  0
    7.3150  -31.3990  -31.1270 C   0  0  0  0  0  0  0  0  0  0  0  0
    4.6340  -35.9490  -36.1400 C   0  0  0  0  0  0  0  0  0  0  0  0
   10.9030  -32.9090  -30.3080 O   0  0  0  0  0  0  0  0  0  0  0  0
    5.2290  -34.7100  -35.7150 C   0  0  0  0  0  0  0  0  0  0  0  0
    9.0370  -36.2400  -34.5960 S   0  0  0  0  0  0  0  0  0  0  0  0
   10.3580  -36.8270  -34.7240 C   0  0  0  0  0  0  0  0  0  0  0  0
   10.9420  -34.5590  -31.2720 C   0  0  1  0  0  0  0  0  0  0  0  0
    6.6090  -32.4240  -30.9180 C   0  0  0  0  0  0  0  0  0  0  0  0
    8.1420  -34.6030  -33.7090 C   0  0  0  0  0  0  0  0  0  0  0  0
   10.5530  -33.2910  -30.6460 C   0  0  2  0  0  0  0  0  0  0  0  0
   10.2330  -38.1100  -34.5470 O   0  0  0  0  0  0  0  0  0  0  0  0
    8.9970  -34.1350  -33.0870 C   0  0  0  0  0  0  0  0  0  0  0  0
    9.5760  -35.4650  -33.0070 C   0  0  2  0  0  0  0  0  0  0  0  0
   10.0240  -35.3460  -32.3470 C   0  0  1  0  0  0  0  0  0  0  0  0
  1  7  1  0
  2 17  1  0
  3  5  1  1
  3 22  1  0
  6  3  1  1
  4 21  2  0
 22  4  1  6
  6 23  1  0
  6 16  1  0
  7 18  1  0
  7  9  2  3
  8 19  1  0
  9  2  1  0
 10 17  1  0
 11 13  1  0
 13  1  1  0
 14 18  1  0
 15 14  1  0
 15 20  2  0
 15  5  1  0
 16 19  1  6
 18 21  1  0
 19 12  1  6
 21  8  1  0
 23 22  1  6
 23 16  1  0
M  END
$$$$

     RDKit          3D

 23 31  0  0  0  0  0  0  0  0999 V2000
    7.9430  -33.6160  -34.0670 C   0  0  1  0  0  0  0  0  0  0  0  0
    8.4840  -34.7560  -33.1410 C   0  0  0  0  0  0  0  0  0  0  0  0
    9.7140  -36.2860  -33.0980 C   0  0  0  0  0  0  0  0  0  0  0  0
    5.5890  -33.5100  -33.6490 C   0  0  2  0  0  0  0  0  0  0  0  0
    7.5590  -32.7260  -32.6300 C   0  0  1  0  0  0  0  0  0  0  0  0
    6.2210  -32.4590  -32.5330 C   0  0  0  0  0  0  0  0  0  0  0  0
    9.7980  -33.5110  -31.4940 C   0  0  1  0  0  0  0  0  0  0  0  0
   10.5650  -33.9450  -31.2840 C   0  0  0  0  0  0  0  0  0  0  0  0
   10.1350  -33.1080  -32.3160 C   0  0  2  0  0  0  0  0  0  0  0  0
    7.2050  -35.0970  -34.8540 O   0  0  0  0  0  0  0  0  0  0  0  0
    5.0770  -34.0280  -34.8190 C   0  0  0  0  0  0  0  0  0  0  0  0
    5.0990  -32.4540  -32.8060 N   0  0  0  0  0  0  0  0  0  0  0  0
    9.8030  -35.1280  -33.0660 C   0  0  1  0  0  0  0  0  0  0  0  0
    9.8850  -35.0790  -32.5610 C   0  0  0  0  0  0  0  0  0  0  0  0
   11.5190  -34.5770  -32.7890 C   0  0  0  0  0  0  0  0  0  0  0  0
    9.7920  -36.0070  -34.0170 C   0  0  0  0  0  0  0  0  0  0  0  0
    8.4190  -33.7390  -33.3100 C   0  0  1  0  0  0  0  0  0  0  0  0
    7.0480  -34.3430  -34.1360 C   0  0  1  0  0  0  0  0  0  0  0  0
    6.9220  -33.3350  -33.6650 C   0  0  2  0  0  0  0  0  0  0  0  0
    4.4530  -32.6690  -33.2560 C   0  0  0  0  0  0  0  0  0  0  0  0
    8.9840  -33.6040  -32.4150 C   0  0  2  0  0  0  0  0  0  0  0  0
    5.5710  -34.5210  -33.8940 C   0  0  1  0  0  0  0  0  0  0  0  0
   10.5560  -34.4530  -32.2490 C   0  0  2  0  0  0  0  0  0  0  0  0
  1 19  1  0
  1 17  1  1
 21  2  1  6
  3 13  1  0
  4 12  1  0
  5  6  1  1
  7  8  1  6
  9 23  1  6
  9  7  1  0
 18 10  1  1
 22 11  1  6
  4 11  1  6
 12  6  1  0
 13 14  1  1
 14 23  1  0
 23 15  1  6
 16  3  1  0
 16 13  1  0
 17  2  1  1
 17  5  1  0
 17 21  1  0
 18  1  1  0
 18 22  1  0
 18 19  1  0
 19  4  1  0
 19  5  1  1
 20 12  1  0
 21  9  1  0
 21  7  1  0
 22  4  1  0
 23  8  1  0
M  END
$$$$

     RDKit          3D

 35 40  0  0  0  0  0  0  0  0999 V2000
    2.1140  -33.9410  -37.3400 C   0  0  0  0  0  0  0  0  0  0  0  0
   10.0290  -34.1220  -32.9490 C   0  0  0  0  0  0  0  0  0  0  0  0
   10.7680  -37.3100  -34.2500 C   0  0  0  0  0  0  0  0  0  0  0  0
   12.5900  -32.5070  -29.5400 C   0  0  0  0  0  0  0  0  0  0  0  0
    4.2660  -34.1440  -35.1100 O   0  0  0  0  0  0  0  0  0  0  0  0
    4.3400  -33.9290  -38.5960 C   0  0  0  0  0  0  0  0  0  0  0  0
    6.1360  -32.5730  -32.4770 C   0  0  0  0  0  0  0  0  0  0  0  0
   11.8720  -33.7450  -31.9750 N   0  0  0  0  0  0  0  0  0  0  0  0
   11.1630  -32.6890  -30.1300 C   0  0  2  0  0  0  0  0  0  0  0  0
    2.8590  -34.7880  -36.5240 N   0  0  0  0  0  0  0  0  0  0  0  0
    9.9600  -36.2590  -34.7370 C   0  0  1  0  0  0  0  0  0  0  0  0
    2.2620  -33.8630  -39.7340 O   0  0  0  0  0  0  0  0  0  0  0  0
   12.5540  -31.7640  -28.2570 C   0  0  0  0  0  0  0  0  0  0  0  0
    7.6280  -34.0970  -33.5540 C   0  0  0  0  0  0  0  0  0  0  0  0
    9.0720  -36.5930  -35.6570 F   0  0  0  0  0  0  0  0  0  0  0  0
   11.4080  -34.3770  -32.9980 N   0  0  0  0  0  0  0  0  0  0  0  0
    3.8190  -32.5150  -32.7620 C   0  0  0  0  0  0  0  0  0  0  0  0
    9.7160  -33.1880  -32.0730 C   0  0  0  0  0  0  0  0  0  0  0  0
   10.2840  -31.7050  -28.0310 C   0  0  0  0  0  0  0  0  0  0  0  0
    0.9940  -33.9310  -36.8990 O   0  0  0  0  0  0  0  0  0  0  0  0
    3.9260  -34.1900  -36.2130 C   0  0  0  0  0  0  0  0  0  0  0  0
    8.9620  -34.5770  -33.4290 C   0  0  0  0  0  0  0  0  0  0  0  0
   10.8870  -33.1980  -31.3970 N   0  0  0  0  0  0  0  0  0  0  0  0
   11.4100  -30.8570  -28.2090 C   0  0  0  0  0  0  0  0  0  0  0  0
    4.8550  -34.1000  -37.3410 C   0  0  0  0  0  0  0  0  0  0  0  0
    5.7160  -31.6750  -31.3890 C   0  0  0  0  0  0  0  0  0  0  0  0
    3.0390  -33.7790  -38.6990 C   0  0  0  0  0  0  0  0  0  0  0  0
    8.4020  -32.6070  -31.9160 C   0  0  0  0  0  0  0  0  0  0  0  0
    5.3570  -33.8170  -34.2490 C   0  0  0  0  0  0  0  0  0  0  0  0
    7.3480  -33.0640  -32.6600 C   0  0  0  0  0  0  0  0  0  0  0  0
    6.5340  -34.4820  -34.4200 C   0  0  0  0  0  0  0  0  0  0  0  0
    5.1330  -32.9670  -33.2160 C   0  0  0  0  0  0  0  0  0  0  0  0
    9.0960  -35.6980  -33.9580 C   0  0  0  0  0  0  0  0  0  0  0  0
    4.2220  -31.8490  -31.5490 C   0  0  0  0  0  0  0  0  0  0  0  0
    9.9520  -32.1120  -29.4030 C   0  0  0  0  0  0  0  0  0  0  0  0
  1 20  2  0
  1 10  1  0
  2 18  2  0
  4 13  1  0
  5 29  1  0
  6 25  1  0
  7 26  1  0
  8 23  1  0
  9  4  1  0
  9 35  1  0
 10 21  2  0
 11  3  1  1
 11 33  1  0
 12 27  1  0
 13 24  1  0
 14 22  2  0
 14 30  1  0
 15 11  1  0
 16  2  1  0
 16  8  1  0
 17 34  1  0
 18 28  1  0
 18 23  1  0
 21  5  1  0
 22  2  1  0
  9 23  1  6
 24 19  1  0
 25 21  1  0
 27  6  2  0
 27  1  1  0
 29 32  1  0
 30  7  1  0
 30 28  2  0
 31 29  2  0
 31 14  1  0
 32 17  1  0
 32  7  2  0
 33 22  1  0
 34 26  1  0
 35 19  1  0
M  END
$$$$

     RDKit          3D

 28 32  0  0  0  0  0  0  0  0999 V2000
    7.7030  -31.7240  -31.4780 C   0  0  1  0  0  0  0  0  0  0  0  0
    7.6280  -35.2490  -34.9580 C   0  0  2  0  0  0  0  0  0  0  0  0
    9.0550  -32.7400  -31.2740 C   0  0  1  0  0  0  0  0  0  0  0  0
   10.1500  -36.0550  -35.2470 C   0  0  0  0  0  0  0  0  0  0  0  0
    5.3550  -31.8710  -31.4910 C   0  0  0  0  0  0  0  0  0  0  0  0
    5.6250  -34.0620  -34.2540 C   0  0  0  0  0  0  0  0  0  0  0  0
    7.0220  -35.7200  -36.2040 C   0  0  0  0  0  0  0  0  0  0  0  0
   12.3480  -34.4390  -30.2800 C   0  0  0  0  0  0  0  0  0  0  0  0
   11.0150  -37.1070  -34.2100 C   0  0  0  0  0  0  0  0  0  0  0  0
   12.1790  -33.2340  -29.6600 C   0  0  0  0  0  0  0  0  0  0  0  0
    5.0240  -35.6030  -37.5110 O   0  0  0  0  0  0  0  0  0  0  0  0
   10.0450  -37.7670  -33.3010 C   0  0  0  0  0  0  0  0  0  0  0  0
   10.9710  -33.7360  -32.1780 C   0  0  2  0  0  0  0  0  0  0  0  0
    8.6750  -31.8620  -30.4740 N   0  0  0  0  0  0  0  0  0  0  0  0
    4.9390  -34.7500  -35.3380 C   0  0  0  0  0  0  0  0  0  0  0  0
    9.0780  -34.9290  -33.0550 C   0  0  2  0  0  0  0  0  0  0  0  0
    4.1980  -32.2150  -31.5540 N   0  0  0  0  0  0  0  0  0  0  0  0
    5.7990  -35.3000  -36.2140 C   0  0  1  0  0  0  0  0  0  0  0  0
    8.9320  -38.3730  -33.7430 C   0  0  0  0  0  0  0  0  0  0  0  0
    7.6660  -33.7930  -33.1660 C   0  0  1  0  0  0  0  0  0  0  0  0
   10.2190  -33.7590  -30.7150 C   0  0  1  0  0  0  0  0  0  0  0  0
   10.1730  -34.5310  -33.1060 O   0  0  0  0  0  0  0  0  0  0  0  0
   12.1980  -34.4130  -31.6860 C   0  0  0  0  0  0  0  0  0  0  0  0
    8.8900  -35.8030  -34.4670 C   0  0  1  0  0  0  0  0  0  0  0  0
    8.4460  -32.9500  -32.3350 N   0  0  0  0  0  0  0  0  0  0  0  0
    6.3860  -31.3500  -31.1590 C   0  0  0  0  0  0  0  0  0  0  0  0
   10.8140  -33.0680  -29.5200 C   0  0  0  0  0  0  0  0  0  0  0  0
    6.9230  -34.2450  -34.0290 C   0  0  0  0  0  0  0  0  0  0  0  0
  1 26  1  1
  1 14  1  0
  2  7  1  1
  2 24  1  0
  2 28  1  0
  3 21  1  0
  3 14  1  1
  4  9  1  0
  5 26  1  0
  6 28  2  0
  8 10  1  0
  9 12  1  0
 10 27  1  0
 13 23  1  1
 13 21  1  0
 15  6  1  0
 16 22  1  6
 17  5  3  0
 18 11  1  1
 18  7  1  0
 18 15  1  0
 19 12  2  0
 20 28  1  0
 20 16  1  0
 20 25  1  6
 21 27  1  1
 22 13  1  0
 23  8  1  0
 24  4  1  6
 24 16  1  0
 25  1  1  0
 25  3  1  0
M  END
$$$$
