
     RDKit          3D

 31 33  0  0  0  0  0  0  0  0999 V2000
   10.5880  -33.7880  -31.3480 C   0  0  0  0  0  0  0  0  0  0  0  0
    2.3080  -35.5300  -37.3050 C   0  0  0  0  0  0  0  0  0  0  0  0
   12.2440  -33.2370  -32.9020 F   0  0  0  0  0  0  0  0  0  0  0  0
    5.2380  -31.7480  -31.1470 C   0  0  0  0  0  0  0  0  0  0  0  0
    4.7730  -35.7280  -37.4060 C   0  0  0  0  0  0  0  0  0  0  0  0
   12.9070  -32.4000  -28.2030 C   0  0  0  0  0  0  0  0  0  0  0  0
   12.2710  -33.1550  -29.2980 C   0  0  0  0  0  0  0  0  0  0  0  0
   11.8470  -33.3710  -31.6430 C   0  0  0  0  0  0  0  0  0  0  0  0
   11.1210  -33.8930  -29.0540 C   0  0  0  0  0  0  0  0  0  0  0  0
   10.3780  -36.3710  -34.7750 C   0  0  0  0  0  0  0  0  0  0  0  0
    9.0730  -35.9010  -35.1170 C   0  0  0  0  0  0  0  0  0  0  0  0
   10.3140  -34.2710  -30.0510 C   0  0  0  0  0  0  0  0  0  0  0  0
    9.7310  -34.7290  -33.3490 C   0  0  1  0  0  0  0  0  0  0  0  0
    6.5280  -31.9320  -31.0270 C   0  0  0  0  0  0  0  0  0  0  0  0
    4.6900  -33.3060  -34.4320 O   0  0  0  0  0  0  0  0  0  0  0  0
    4.0560  -34.0140  -35.9730 C   0  0  0  0  0  0  0  0  0  0  0  0
   12.7050  -32.9810  -30.6610 C   0  0  0  0  0  0  0  0  0  0  0  0
    9.6260  -33.7850  -32.3730 C   0  0  2  0  0  0  0  0  0  0  0  0
    4.5600  -32.2980  -32.3130 C   0  0  0  0  0  0  0  0  0  0  0  0
    7.5770  -32.4140  -31.7030 C   0  0  0  0  0  0  0  0  0  0  0  0
    1.7850  -34.6680  -38.3920 C   0  0  0  0  0  0  0  0  0  0  0  0
    5.1420  -34.2080  -34.9830 C   0  0  1  0  0  0  0  0  0  0  0  0
    5.3100  -32.9760  -33.2160 C   0  0  0  0  0  0  0  0  0  0  0  0
    8.6990  -34.9700  -34.1500 N   0  0  0  0  0  0  0  0  0  0  0  0
    8.6520  -32.7020  -32.5200 C   0  0  0  0  0  0  0  0  0  0  0  0
    5.9830  -35.0640  -35.3180 C   0  0  0  0  0  0  0  0  0  0  0  0
   10.8480  -35.5180  -33.7900 C   0  0  0  0  0  0  0  0  0  0  0  0
    3.5850  -35.0780  -36.7450 N   0  0  0  0  0  0  0  0  0  0  0  0
    2.5590  -34.7380  -39.5760 O   0  0  0  0  0  0  0  0  0  0  0  0
    3.3790  -33.5500  -36.5900 C   0  0  0  0  0  0  0  0  0  0  0  0
    5.8870  -35.7030  -36.5840 C   0  0  0  0  0  0  0  0  0  0  0  0
  1 12  2  0
  2 28  1  0
  3  8  1  0
  4 14  1  0
  5 28  1  0
  5 31  1  0
  7  9  2  0
  7  6  1  0
  8  1  1  0
  8 17  2  0
 10 27  1  0
 11 10  1  0
 11 24  1  0
 12  9  1  0
 13 18  1  0
 15 23  1  0
 16 22  1  0
 17  7  1  0
 18 25  1  6
 18  1  1  0
 19  4  2  3
 20 14  2  0
 21  2  1  0
 22 15  1  6
 23 19  1  0
 24 13  1  0
 25 20  2  0
 26 22  1  0
 13 27  1  6
 28 16  1  0
 29 21  1  0
 30 16  2  0
 31 26  1  0
M  END
$$$$

     RDKit          3D

 26 30  0  0  0  0  0  0  0  0999 V2000
    4.6530  -33.0300  -33.0300 O   0  0  0  0  0  0  0  0  0  0  0  0
    6.7070  -34.1120  -33.9890 C   0  0  0  0  0  0  0  0  0  0  0  0
   10.4100  -34.6460  -32.5290 C   0  0  0  0  0  0  0  0  0  0  0  0
   12.0860  -33.4950  -32.2560 C   0  0  0  0  0  0  0  0  0  0  0  0
   10.0370  -33.8090  -32.8260 C   0  0  1  0  0  0  0  0  0  0  0  0
   10.7850  -35.7970  -34.3780 C   0  0  0  0  0  0  0  0  0  0  0  0
    6.3080  -35.7060  -35.7360 C   0  0  0  0  0  0  0  0  0  0  0  0
    3.0140  -34.8050  -35.5530 O   0  0  0  0  0  0  0  0  0  0  0  0
   11.6610  -32.9950  -30.5030 F   0  0  0  0  0  0  0  0  0  0  0  0
    3.1810  -34.4900  -36.9500 C   0  0  0  0  0  0  0  0  0  0  0  0
   10.5020  -35.4250  -33.3580 C   0  0  0  0  0  0  0  0  0  0  0  0
    6.1530  -33.1220  -33.3210 C   0  0  0  0  0  0  0  0  0  0  0  0
    7.7920  -34.2340  -33.8110 C   0  0  0  0  0  0  0  0  0  0  0  0
    6.9670  -32.3250  -32.2760 C   0  0  0  0  0  0  0  0  0  0  0  0
   10.8630  -34.8080  -30.6050 S   0  0  0  0  0  0  0  0  0  0  0  0
    2.5190  -33.0080  -33.8900 O   0  0  0  0  0  0  0  0  0  0  0  0
    8.7990  -33.6840  -32.6650 C   0  0  0  0  0  0  0  0  0  0  0  0
   10.3430  -33.9110  -31.8340 C   0  0  2  0  0  0  0  0  0  0  0  0
    4.0000  -32.9160  -34.1780 C   0  0  2  0  0  0  0  0  0  0  0  0
   11.6580  -34.1050  -33.2670 C   0  0  0  0  0  0  0  0  0  0  0  0
    5.7450  -34.8060  -34.7700 C   0  0  2  0  0  0  0  0  0  0  0  0
   10.8030  -33.6400  -31.2350 C   0  0  2  0  0  0  0  0  0  0  0  0
   10.5950  -37.0500  -34.1190 C   0  0  0  0  0  0  0  0  0  0  0  0
   10.5490  -35.0780  -33.6330 C   0  0  2  0  0  0  0  0  0  0  0  0
    8.1770  -32.6160  -31.9040 C   0  0  0  0  0  0  0  0  0  0  0  0
    4.2930  -34.2230  -34.9400 C   0  0  1  0  0  0  0  0  0  0  0  0
  2 13  2  0
  2 12  1  0
 18  3  1  6
  4 22  1  0
  5 17  1  1
  5  3  1  0
  5 18  1  0
 24  6  1  6
 21  7  1  6
 26  8  1  1
 10  8  1  0
 11  3  1  0
 12  1  1  0
 12 14  2  0
 13 17  1  0
 14 25  1  0
 17 25  2  0
 18 22  1  0
 19 16  1  1
 19  1  1  0
 20  4  1  0
 21  2  1  0
 22 15  1  0
 22  9  1  1
 23 11  1  0
 24 11  1  0
 24 20  1  0
 24  5  1  0
 26 21  1  0
 26 19  1  0
M  END
$$$$

     RDKit          3D

 36 40  0  0  0  0  0  0  0  0999 V2000
   10.8820  -32.3990  -29.3310 C   0  0  1  0  0  0  0  0  0  0  0  0
   10.3330  -31.2590  -28.5030 C   0  0  0  0  0  0  0  0  0  0  0  0
    9.5920  -32.6530  -30.4450 C   0  0  0  0  0  0  0  0  0  0  0  0
   12.1180  -34.9090  -33.7160 O   0  0  0  0  0  0  0  0  0  0  0  0
   10.3150  -32.8640  -31.8900 C   0  0  2  0  0  0  0  0  0  0  0  0
    4.7720  -34.2360  -34.6060 N   0  0  0  0  0  0  0  0  0  0  0  0
    3.1630  -34.9860  -38.3250 C   0  0  0  0  0  0  0  0  0  0  0  0
   12.7440  -31.8060  -25.8810 O   0  0  0  0  0  0  0  0  0  0  0  0
    5.8690  -33.8900  -33.9760 C   0  0  0  0  0  0  0  0  0  0  0  0
   10.5260  -32.1790  -30.7160 C   0  0  2  0  0  0  0  0  0  0  0  0
    9.6060  -33.6580  -32.3990 C   0  0  2  0  0  0  0  0  0  0  0  0
    2.0480  -34.3640  -40.1150 N   0  0  0  0  0  0  0  0  0  0  0  0
   10.0940  -34.5650  -32.9050 C   0  0  0  0  0  0  0  0  0  0  0  0
    5.8130  -32.8170  -33.1110 O   0  0  0  0  0  0  0  0  0  0  0  0
    5.5430  -33.9140  -39.3620 C   0  0  0  0  0  0  0  0  0  0  0  0
    5.3050  -35.2320  -35.3780 C   0  0  0  0  0  0  0  0  0  0  0  0
    8.9760  -36.5840  -34.0920 C   0  0  0  0  0  0  0  0  0  0  0  0
    7.0130  -34.6670  -34.1160 C   0  0  0  0  0  0  0  0  0  0  0  0
    4.3910  -33.8590  -40.0600 N   0  0  0  0  0  0  0  0  0  0  0  0
   10.6430  -31.4770  -26.9880 C   0  0  0  0  0  0  0  0  0  0  0  0
   11.3870  -33.1250  -31.6200 C   0  0  0  0  0  0  0  0  0  0  0  0
    8.4640  -31.8580  -30.6750 O   0  0  0  0  0  0  0  0  0  0  0  0
   11.7280  -32.4220  -26.5760 C   0  0  1  0  0  0  0  0  0  0  0  0
    3.2530  -34.3310  -39.6310 C   0  0  0  0  0  0  0  0  0  0  0  0
    8.2970  -33.7920  -32.6870 O   0  0  0  0  0  0  0  0  0  0  0  0
   11.9440  -34.2290  -29.6750 C   0  0  0  0  0  0  0  0  0  0  0  0
    4.4540  -35.7430  -36.0800 C   0  0  0  0  0  0  0  0  0  0  0  0
    6.5370  -35.5820  -35.0620 C   0  0  0  0  0  0  0  0  0  0  0  0
   11.3500  -34.7870  -33.2100 C   0  0  0  0  0  0  0  0  0  0  0  0
   11.8640  -33.2210  -28.7520 C   0  0  0  0  0  0  0  0  0  0  0  0
    7.9630  -34.5260  -33.6150 C   0  0  0  0  0  0  0  0  0  0  0  0
    4.3970  -35.1190  -37.6600 C   0  0  0  0  0  0  0  0  0  0  0  0
   12.5420  -33.1690  -27.6250 C   0  0  0  0  0  0  0  0  0  0  0  0
    8.9030  -35.3820  -33.6880 C   0  0  0  0  0  0  0  0  0  0  0  0
   12.1540  -33.6080  -30.8190 C   0  0  0  0  0  0  0  0  0  0  0  0
    5.5660  -34.4850  -38.0710 C   0  0  0  0  0  0  0  0  0  0  0  0
  1 30  1  0
  1  2  1  6
  2 20  1  0
  4 29  2  0
  5 21  1  1
  5 10  1  0
  6  9  1  0
  7 32  2  0
  9 14  2  0
 10  3  1  1
 10  1  1  0
 11 13  1  0
 11  5  1  0
 12 24  1  0
 15 36  2  0
 16 28  2  0
 16  6  1  0
 17 34  2  0
 18  9  1  0
 18 31  2  3
 19 24  2  0
 19 15  1  0
 20 23  1  0
 21 35  2  0
 22  3  1  0
 23  8  1  6
 24  7  1  0
 11 25  1  6
 27 16  1  0
 28 18  1  0
 29 13  2  0
 30 26  1  0
 30 33  1  0
 31 25  1  0
 32 27  1  0
 33 23  1  0
 34 31  1  0
 34 13  1  0
 35 26  1  0
 36 32  1  0
M  END
$$$$

     RDKit          3D

 17 18  0  0  0  0  0  0  0  0999 V2000
   11.6750  -35.4770  -34.4260 C   0  0  0  0  0  0  0  0  0  0  0  0
    4.6490  -35.1070  -36.1730 O   0  0  0  0  0  0  0  0  0  0  0  0
   10.5620  -33.4960  -32.9050 C   0  0  0  0  0  0  0  0  0  0  0  0
    7.4200  -33.4550  -33.0390 C   0  0  0  0  0  0  0  0  0  0  0  0
    5.3480  -33.7860  -34.2490 C   0  0  0  0  0  0  0  0  0  0  0  0
    8.3820  -34.2420  -33.6170 C   0  0  1  0  0  0  0  0  0  0  0  0
    7.7810  -31.8120  -30.9770 N   0  0  0  0  0  0  0  0  0  0  0  0
   11.9390  -33.5120  -33.0160 C   0  0  0  0  0  0  0  0  0  0  0  0
    6.7970  -35.1630  -35.1710 C   0  0  0  0  0  0  0  0  0  0  0  0
    6.2370  -33.4370  -33.5250 C   0  0  0  0  0  0  0  0  0  0  0  0
   12.5050  -34.5340  -33.7450 C   0  0  0  0  0  0  0  0  0  0  0  0
   10.2650  -35.4220  -34.2910 C   0  0  0  0  0  0  0  0  0  0  0  0
    7.5880  -32.5830  -31.8900 C   0  0  0  0  0  0  0  0  0  0  0  0
    5.7340  -34.6740  -35.0940 C   0  0  0  0  0  0  0  0  0  0  0  0
    3.9940  -33.5350  -34.1880 O   0  0  0  0  0  0  0  0  0  0  0  0
    9.7700  -34.4250  -33.5200 C   0  0  0  0  0  0  0  0  0  0  0  0
    7.9040  -35.1970  -34.5300 C   0  0  0  0  0  0  0  0  0  0  0  0
  1 12  2  0
  1 11  1  0
  2 14  1  0
  4 13  1  0
  5 15  1  0
  5 10  2  0
  6 16  1  1
  6  4  1  0
  8  3  1  0
  9 14  2  0
  9 17  1  0
 10  4  2  0
 11  8  2  0
 12 16  1  0
 13  7  3  0
 14  5  1  0
 16  3  2  0
 17  6  1  0
M  END
$$$$

     RDKit          3D

 23 28  0  0  0  0  0  0  0  0999 V2000
   10.6460  -34.0920  -31.5560 C   0  0  2  0  0  0  0  0  0  0  0  0
    7.8550  -36.5150  -34.4020 C   0  0  0  0  0  0  0  0  0  0  0  0
   11.1630  -33.0180  -32.3420 C   0  0  0  0  0  0  0  0  0  0  0  0
    9.7170  -33.6680  -32.0510 C   0  0  1  0  0  0  0  0  0  0  0  0
    6.8950  -32.7650  -33.0880 C   0  0  0  0  0  0  0  0  0  0  0  0
   10.7310  -33.0760  -30.3500 C   0  0  0  0  0  0  0  0  0  0  0  0
    7.8140  -33.4090  -32.9810 N   0  0  0  0  0  0  0  0  0  0  0  0
    6.6490  -35.4560  -36.2340 C   0  0  0  0  0  0  0  0  0  0  0  0
   10.8360  -35.5930  -35.9140 C   0  0  0  0  0  0  0  0  0  0  0  0
    7.3610  -31.4680  -31.1420 C   0  0  0  0  0  0  0  0  0  0  0  0
    8.3950  -32.2550  -30.8880 C   0  0  1  0  0  0  0  0  0  0  0  0
    6.6710  -36.1930  -34.9670 C   0  0  0  0  0  0  0  0  0  0  0  0
    8.3710  -33.6650  -32.2260 C   0  0  2  0  0  0  0  0  0  0  0  0
   11.0060  -32.3130  -29.2770 O   0  0  0  0  0  0  0  0  0  0  0  0
    6.6110  -31.6840  -32.3430 C   0  0  0  0  0  0  0  0  0  0  0  0
    7.8690  -35.0220  -36.7470 C   0  0  0  0  0  0  0  0  0  0  0  0
   11.5530  -33.7990  -30.4640 S   0  0  0  0  0  0  0  0  0  0  0  0
    9.6270  -32.8730  -30.7780 C   0  0  1  0  0  0  0  0  0  0  0  0
    9.0940  -35.3080  -35.9650 C   0  0  0  0  0  0  0  0  0  0  0  0
   10.5650  -34.8370  -33.4770 C   0  0  0  0  0  0  0  0  0  0  0  0
    9.8610  -34.9850  -32.1240 C   0  0  1  0  0  0  0  0  0  0  0  0
   10.4820  -36.1250  -34.4700 C   0  0  1  0  0  0  0  0  0  0  0  0
    8.9770  -35.9490  -34.9190 C   0  0  0  0  0  0  0  0  0  0  0  0
  1  3  1  6
  1 17  1  0
  4  1  1  0
  4 18  1  0
  5  7  1  0
  5 15  2  0
  6 14  2  0
 13  7  1  6
  8 12  1  0
  9 22  1  0
 11 10  1  6
 11 18  1  0
 12  2  2  0
 13  4  1  0
 13 11  1  0
 15 10  1  0
 16  8  2  0
 16 19  1  0
 17  6  1  0
 18  6  1  6
 19  9  1  0
 19 23  2  0
 21 20  1  6
  4 21  1  6
 21  1  1  0
 22 20  1  1
 23 22  1  0
 23  2  1  0
M  END
$$$$

     RDKit          3D

 36 40  0  0  0  0  0  0  0  0999 V2000
    8.6770  -34.3390  -33.7540 C   0  0  0  0  0  0  0  0  0  0  0  0
    4.5780  -34.3010  -35.3110 N   0  0  0  0  0  0  0  0  0  0  0  0
    4.5320  -33.4970  -36.5880 C   0  0  0  0  0  0  0  0  0  0  0  0
    3.9830  -33.1490  -33.4750 C   0  0  0  0  0  0  0  0  0  0  0  0
    7.7560  -35.2790  -34.2620 C   0  0  0  0  0  0  0  0  0  0  0  0
    4.0480  -36.1650  -36.8800 C   0  0  0  0  0  0  0  0  0  0  0  0
   10.1540  -34.8110  -33.8110 C   0  0  0  0  0  0  0  0  0  0  0  0
    5.0360  -32.8600  -32.8500 N   0  0  0  0  0  0  0  0  0  0  0  0
    6.0140  -33.2870  -33.5090 C   0  0  1  0  0  0  0  0  0  0  0  0
   10.4090  -36.0430  -33.9920 C   0  0  0  0  0  0  0  0  0  0  0  0
    3.8040  -31.6060  -31.3400 C   0  0  0  0  0  0  0  0  0  0  0  0
   12.5360  -33.6510  -31.3250 C   0  0  0  0  0  0  0  0  0  0  0  0
   11.0980  -33.9150  -33.2710 N   0  0  0  0  0  0  0  0  0  0  0  0
   12.3740  -34.1080  -33.7440 C   0  0  0  0  0  0  0  0  0  0  0  0
   12.9810  -33.4530  -30.0980 C   0  0  0  0  0  0  0  0  0  0  0  0
    2.8060  -32.6660  -33.1940 C   0  0  0  0  0  0  0  0  0  0  0  0
    4.7250  -34.3120  -37.9500 C   0  0  0  0  0  0  0  0  0  0  0  0
   13.2310  -32.7850  -27.7390 C   0  0  0  0  0  0  0  0  0  0  0  0
   12.3820  -32.9990  -28.9570 C   0  0  0  0  0  0  0  0  0  0  0  0
    7.2830  -32.8840  -33.1290 C   0  0  0  0  0  0  0  0  0  0  0  0
    6.7030  -35.1100  -34.8650 C   0  0  0  0  0  0  0  0  0  0  0  0
    2.6890  -31.8120  -32.0420 C   0  0  0  0  0  0  0  0  0  0  0  0
   11.0390  -32.6380  -28.9390 C   0  0  0  0  0  0  0  0  0  0  0  0
    9.4770  -36.9660  -34.4170 C   0  0  0  0  0  0  0  0  0  0  0  0
    5.7380  -34.2300  -34.5480 C   0  0  0  0  0  0  0  0  0  0  0  0
    4.9990  -32.0830  -31.7880 C   0  0  0  0  0  0  0  0  0  0  0  0
    3.6460  -35.2430  -37.9250 N   0  0  0  0  0  0  0  0  0  0  0  0
   10.1220  -32.6440  -29.9030 C   0  0  0  0  0  0  0  0  0  0  0  0
   11.6290  -36.6140  -33.6530 O   0  0  0  0  0  0  0  0  0  0  0  0
    8.2580  -36.5890  -34.4880 C   0  0  0  0  0  0  0  0  0  0  0  0
    3.8760  -35.5740  -35.4320 C   0  0  0  0  0  0  0  0  0  0  0  0
    6.4080  -31.5810  -31.0240 Cl  0  0  0  0  0  0  0  0  0  0  0  0
   11.1690  -33.5700  -31.9240 C   0  0  0  0  0  0  0  0  0  0  0  0
    8.4070  -33.1470  -33.1700 C   0  0  0  0  0  0  0  0  0  0  0  0
   13.3250  -34.2520  -34.1850 O   0  0  0  0  0  0  0  0  0  0  0  0
   10.1340  -33.1140  -31.1790 C   0  0  0  0  0  0  0  0  0  0  0  0
  1 34  1  0
  2 25  1  0
  3  2  1  0
  4 16  1  0
  4  8  1  0
  5  1  2  0
  6 31  1  0
  7  1  1  0
  7 13  1  0
  8 26  1  0
  9 20  1  0
  9  8  1  1
 10  7  2  0
 10 29  1  0
 12 15  1  0
 13 33  1  0
 14 13  1  0
 15 19  1  0
 16 22  2  0
 17 27  1  0
 17  3  1  0
 19 23  2  0
 19 18  1  0
 21 25  2  0
 21  5  1  0
 22 11  1  0
 24 10  1  0
 25  9  1  0
 26 11  2  0
 26 32  1  0
 27  6  1  0
 28 23  1  0
 30 24  2  0
 30  5  1  0
 31  2  1  0
 33 12  2  0
 33 36  1  0
 34 20  1  0
 35 14  1  0
 36 28  2  0
M  END
$$$$

     RDKit          3D

 16 18  0  0  0  0  0  0  0  0999 V2000
    8.9330  -34.1890  -32.9210 C   0  0  1  0  0  0  0  0  0  0  0  0
    7.6160  -34.5680  -33.7910 C   0  0  2  0  0  0  0  0  0  0  0  0
   10.0850  -34.6680  -32.8560 C   0  0  0  0  0  0  0  0  0  0  0  0
    8.4760  -32.2460  -31.4390 C   0  0  0  0  0  0  0  0  0  0  0  0
    9.6320  -34.5720  -33.9500 S   0  0  0  0  0  0  0  0  0  0  0  0
    7.1860  -35.2490  -34.6380 C   0  0  0  0  0  0  0  0  0  0  0  0
    9.9150  -33.9100  -31.6650 C   0  0  1  0  0  0  0  0  0  0  0  0
    8.7770  -32.8940  -32.4840 C   0  0  0  0  0  0  0  0  0  0  0  0
   11.0490  -33.2420  -30.6760 C   0  0  0  0  0  0  0  0  0  0  0  0
    9.5540  -32.5670  -30.6280 C   0  0  0  0  0  0  0  0  0  0  0  0
    6.5020  -34.3570  -34.2550 C   0  0  1  0  0  0  0  0  0  0  0  0
    7.9530  -33.5040  -32.9990 C   0  0  2  0  0  0  0  0  0  0  0  0
    9.2480  -34.5850  -32.3890 C   0  0  1  0  0  0  0  0  0  0  0  0
    4.6590  -34.0760  -34.1950 C   0  0  0  0  0  0  0  0  0  0  0  0
   10.3500  -34.5220  -31.4490 C   0  0  0  0  0  0  0  0  0  0  0  0
   10.9990  -33.7160  -32.8270 S   0  0  0  0  0  0  0  0  0  0  0  0
  1  5  1  6
  1 13  1  0
  2  6  1  6
  2 12  1  0
  4 10  1  0
  5  3  1  0
  6 11  1  0
  7 15  1  1
  7  9  1  0
  8  4  1  0
  9 10  1  0
 11 14  1  1
 11  2  1  0
 12  1  1  0
 12  8  1  6
 13  3  1  6
 13  7  1  0
 16  7  1  0
M  END
$$$$

     RDKit          3D

 18 19  0  0  0  0  0  0  0  0999 V2000
    6.1530  -34.6130  -34.7030 C   0  0  0  0  0  0  0  0  0  0  0  0
   12.3410  -33.7210  -31.4940 C   0  0  0  0  0  0  0  0  0  0  0  0
   10.2540  -33.4410  -32.6460 C   0  0  0  0  0  0  0  0  0  0  0  0
    6.8260  -35.4930  -35.2210 C   0  0  0  0  0  0  0  0  0  0  0  0
   11.5440  -33.7840  -32.7200 C   0  0  0  0  0  0  0  0  0  0  0  0
    7.7170  -32.7360  -32.4660 N   0  0  0  0  0  0  0  0  0  0  0  0
    8.1110  -31.8480  -30.5210 O   0  0  0  0  0  0  0  0  0  0  0  0
    8.2890  -34.8050  -33.7640 N   0  0  0  0  0  0  0  0  0  0  0  0
    9.5960  -33.1810  -31.4120 C   0  0  0  0  0  0  0  0  0  0  0  0
    6.2200  -36.3320  -36.3840 C   0  0  0  0  0  0  0  0  0  0  0  0
    8.1060  -35.6520  -34.6530 C   0  0  0  0  0  0  0  0  0  0  0  0
    6.3000  -33.7340  -33.8160 C   0  0  0  0  0  0  0  0  0  0  0  0
   10.3580  -32.9810  -30.3100 C   0  0  0  0  0  0  0  0  0  0  0  0
    5.4130  -32.7650  -33.3420 C   0  0  0  0  0  0  0  0  0  0  0  0
    8.4100  -32.6280  -31.4920 C   0  0  0  0  0  0  0  0  0  0  0  0
   11.6090  -33.3030  -30.3910 C   0  0  0  0  0  0  0  0  0  0  0  0
    7.5510  -33.8100  -33.3830 C   0  0  0  0  0  0  0  0  0  0  0  0
    4.7460  -36.1100  -36.5140 C   0  0  0  0  0  0  0  0  0  0  0  0
  1 12  1  0
  2 16  2  0
  3  9  1  0
  4  1  2  0
  4 11  1  0
  5  3  2  0
  5  2  1  0
  6 15  1  0
  8 17  2  0
  9 13  2  0
 10  4  1  0
 11  8  1  0
 12 17  1  0
 12 14  1  0
 15  9  1  0
 15  7  2  0
 16 13  1  0
 17  6  1  0
 18 10  1  0
M  END
$$$$

     RDKit          3D

 21 24  0  0  0  0  0  0  0  0999 V2000
    8.7240  -34.4750  -34.0630 C   0  0  0  0  0  0  0  0  0  0  0  0
    6.4990  -31.6960  -31.6640 S   0  0  0  0  0  0  0  0  0  0  0  0
    7.4390  -34.2880  -34.1840 C   0  0  0  0  0  0  0  0  0  0  0  0
    6.5890  -33.4390  -33.6170 C   0  0  2  0  0  0  0  0  0  0  0  0
   10.8830  -35.5340  -34.1500 C   0  0  0  0  0  0  0  0  0  0  0  0
   11.1780  -34.5800  -33.3080 C   0  0  0  0  0  0  0  0  0  0  0  0
    6.9790  -35.2530  -35.0020 C   0  0  0  0  0  0  0  0  0  0  0  0
    7.5040  -32.8670  -32.5250 C   0  0  0  0  0  0  0  0  0  0  0  0
    6.2510  -32.6650  -32.4980 C   0  0  1  0  0  0  0  0  0  0  0  0
    8.4720  -32.1570  -31.7630 S   0  0  0  0  0  0  0  0  0  0  0  0
    9.6090  -35.5900  -34.4910 C   0  0  0  0  0  0  0  0  0  0  0  0
    8.6180  -32.6910  -32.5350 C   0  0  0  0  0  0  0  0  0  0  0  0
   10.4260  -33.8130  -32.6150 C   0  0  2  0  0  0  0  0  0  0  0  0
    8.4900  -33.2080  -31.6530 C   0  0  0  0  0  0  0  0  0  0  0  0
    5.2270  -33.5330  -33.8320 C   0  0  1  0  0  0  0  0  0  0  0  0
    5.9480  -35.1400  -35.3960 C   0  0  0  0  0  0  0  0  0  0  0  0
    4.6050  -32.7160  -32.6620 C   0  0  0  0  0  0  0  0  0  0  0  0
    8.7330  -32.7700  -31.9680 C   0  0  2  0  0  0  0  0  0  0  0  0
    9.8910  -32.9640  -31.6920 C   0  0  0  0  0  0  0  0  0  0  0  0
    8.7710  -33.7570  -32.9600 C   0  0  2  0  0  0  0  0  0  0  0  0
    4.9230  -34.2440  -35.0200 C   0  0  0  0  0  0  0  0  0  0  0  0
  1 20  1  0
  3  1  2  3
  4  3  1  1
  4  9  1  0
  5  6  1  0
  7  3  1  0
  9  8  1  1
  9  2  1  0
 11  5  1  0
 11  1  1  0
 13  6  1  1
 13 19  1  0
 15 21  1  6
 15  4  1  0
 15 17  1  0
 16 21  1  0
 16  7  2  0
 17  9  1  0
 18 12  1  6
 18 10  1  0
 18 19  1  0
 18 14  1  0
 20 13  1  0
 20 14  1  1
M  END
$$$$

     RDKit          3D

 16 18  0  0  0  0  0  0  0  0999 V2000
    4.8690  -34.8890  -36.6800 N   0  0  0  0  0  0  0  0  0  0  0  0
    6.4620  -34.6880  -34.9470 C   0  0  2  0  0  0  0  0  0  0  0  0
    8.0340  -33.7850  -33.1880 N   0  0  0  0  0  0  0  0  0  0  0  0
    9.1200  -32.4850  -30.9560 C   0  0  0  0  0  0  0  0  0  0  0  0
    7.3580  -32.7490  -32.6180 C   0  0  0  0  0  0  0  0  0  0  0  0
    7.8510  -32.1390  -31.4620 C   0  0  0  0  0  0  0  0  0  0  0  0
    8.7600  -35.2580  -34.3290 C   0  0  0  0  0  0  0  0  0  0  0  0
    6.2940  -34.9820  -36.4140 C   0  0  0  0  0  0  0  0  0  0  0  0
   11.0840  -33.7890  -31.2840 O   0  0  0  0  0  0  0  0  0  0  0  0
    9.7130  -31.9070  -29.7130 C   0  0  0  0  0  0  0  0  0  0  0  0
    7.6980  -34.5680  -34.1400 C   0  0  0  0  0  0  0  0  0  0  0  0
    5.5860  -35.4310  -34.8910 C   0  0  0  0  0  0  0  0  0  0  0  0
    9.7460  -34.8150  -33.4740 N   0  0  0  0  0  0  0  0  0  0  0  0
    4.3200  -35.0730  -35.5320 O   0  0  0  0  0  0  0  0  0  0  0  0
    9.2520  -33.9550  -32.7350 C   0  0  0  0  0  0  0  0  0  0  0  0
    9.8020  -33.4000  -31.6650 C   0  0  0  0  0  0  0  0  0  0  0  0
  1  8  1  0
  1 14  1  0
  2 12  1  0
  2 11  1  1
  3 15  1  0
  3  5  1  0
  4 10  1  0
  5  6  2  0
  6  4  1  0
  7 11  2  0
  7 13  1  0
  8  2  1  0
 11  3  1  0
 13 15  2  0
 14 12  1  0
 15 16  1  0
 16  9  1  0
 16  4  2  0
M  END
$$$$

     RDKit          3D

 20 29  0  0  0  0  0  0  0  0999 V2000
   10.2610  -36.4080  -33.6330 N   0  0  0  0  0  0  0  0  0  0  0  0
   11.5260  -34.4280  -33.3790 C   0  0  1  0  0  0  0  0  0  0  0  0
    9.9270  -35.3210  -32.5080 C   0  0  1  0  0  0  0  0  0  0  0  0
   11.1520  -35.5640  -33.2910 C   0  0  2  0  0  0  0  0  0  0  0  0
   10.3480  -33.8410  -30.3870 C   0  0  1  0  0  0  0  0  0  0  0  0
    8.9740  -33.1210  -33.0050 C   0  0  1  0  0  0  0  0  0  0  0  0
    6.2820  -32.8590  -32.8400 C   0  0  0  0  0  0  0  0  0  0  0  0
   11.4180  -33.4970  -32.4160 C   0  0  1  0  0  0  0  0  0  0  0  0
    9.2520  -35.7760  -33.8190 C   0  0  2  0  0  0  0  0  0  0  0  0
    6.9680  -32.3310  -32.5270 C   0  0  0  0  0  0  0  0  0  0  0  0
   11.0270  -35.0320  -32.2340 C   0  0  1  0  0  0  0  0  0  0  0  0
    9.0210  -34.4610  -33.3700 C   0  0  2  0  0  0  0  0  0  0  0  0
   10.5090  -33.4230  -32.9960 C   0  0  0  0  0  0  0  0  0  0  0  0
   10.7700  -33.1550  -31.3510 C   0  0  2  0  0  0  0  0  0  0  0  0
    9.0310  -33.0960  -31.7130 C   0  0  0  0  0  0  0  0  0  0  0  0
    7.9300  -33.1130  -32.8160 C   0  0  0  0  0  0  0  0  0  0  0  0
    8.3410  -32.5210  -30.2270 S   0  0  0  0  0  0  0  0  0  0  0  0
   10.5420  -32.8650  -30.0270 C   0  0  1  0  0  0  0  0  0  0  0  0
    9.2420  -34.3930  -34.4920 O   0  0  0  0  0  0  0  0  0  0  0  0
    9.5280  -32.9620  -30.7170 C   0  0  1  0  0  0  0  0  0  0  0  0
  4  1  1  1
  2  4  1  6
  2  8  1  0
 11  2  1  6
  3 11  1  0
  4  3  1  0
  4 11  1  0
  5 18  1  0
  6 13  1  0
  6 16  1  1
  6 15  1  0
  7 10  1  0
  8 11  1  0
  8 14  1  0
  9  1  1  1
  9 12  1  0
  3  9  1  6
 12  6  1  0
 12  3  1  0
  8 13  1  1
 14  5  1  0
 14 18  1  1
 15 20  1  0
 16 10  1  0
 19  9  1  0
 12 19  1  1
  5 20  1  6
 20 17  1  1
 18 20  1  6
M  END
$$$$

     RDKit          3D

 21 24  0  0  0  0  0  0  0  0999 V2000
    9.1160  -35.5980  -34.2760 C   0  0  0  0  0  0  0  0  0  0  0  0
    6.0120  -31.8990  -31.4020 C   0  0  2  0  0  0  0  0  0  0  0  0
   12.6260  -33.6780  -30.9740 C   0  0  0  0  0  0  0  0  0  0  0  0
    6.7880  -32.1370  -32.2270 C   0  0  2  0  0  0  0  0  0  0  0  0
    7.6460  -33.3960  -32.8090 C   0  0  0  0  0  0  0  0  0  0  0  0
    8.1390  -35.0200  -34.2840 C   0  0  0  0  0  0  0  0  0  0  0  0
   12.4970  -33.5690  -32.2990 C   0  0  0  0  0  0  0  0  0  0  0  0
   11.1880  -33.5210  -32.8740 C   0  0  0  0  0  0  0  0  0  0  0  0
   11.5070  -33.7030  -30.0820 C   0  0  0  0  0  0  0  0  0  0  0  0
    7.0920  -33.7960  -33.4670 C   0  0  0  0  0  0  0  0  0  0  0  0
    6.9970  -33.1790  -32.7810 C   0  0  2  0  0  0  0  0  0  0  0  0
    5.9500  -34.8650  -34.7930 C   0  0  0  0  0  0  0  0  0  0  0  0
    7.9110  -31.9820  -32.2950 C   0  0  2  0  0  0  0  0  0  0  0  0
    6.7850  -34.3380  -34.0540 C   0  0  0  0  0  0  0  0  0  0  0  0
    8.4630  -31.4190  -31.0130 O   0  0  0  0  0  0  0  0  0  0  0  0
    5.5590  -33.3080  -32.8560 S   0  0  0  0  0  0  0  0  0  0  0  0
    8.8310  -33.4890  -32.6550 C   0  0  0  0  0  0  0  0  0  0  0  0
    5.4010  -34.2120  -35.3640 C   0  0  0  0  0  0  0  0  0  0  0  0
   10.2510  -33.6230  -30.6590 C   0  0  0  0  0  0  0  0  0  0  0  0
   10.0980  -33.4870  -32.0250 C   0  0  0  0  0  0  0  0  0  0  0  0
    6.5000  -31.0550  -31.9840 C   0  0  0  0  0  0  0  0  0  0  0  0
  2 21  1  6
  3  9  2  0
  4 21  1  6
  4  2  1  0
  5 11  1  0
  5 17  1  0
  5 13  1  0
  6  1  3  0
  6 14  1  0
  7  3  1  0
  8  7  2  0
  8 20  1  0
 11 10  1  6
 11  4  1  0
 13  4  1  0
 13 15  1  1
 14 12  1  0
 14 10  1  0
 16 11  1  0
 16  2  1  0
 17 20  1  0
 18 12  2  0
 19  9  1  0
 20 19  2  0
M  END
$$$$

     RDKit          3D

 26 30  0  0  0  0  0  0  0  0999 V2000
    7.7150  -34.4310  -33.8260 C   0  0  0  0  0  0  0  0  0  0  0  0
   10.6670  -34.4580  -33.2720 C   0  0  0  0  0  0  0  0  0  0  0  0
    6.2360  -32.1520  -32.2580 N   0  0  0  0  0  0  0  0  0  0  0  0
   12.3570  -34.0310  -30.2110 C   0  0  0  0  0  0  0  0  0  0  0  0
   10.8360  -35.4960  -34.1570 C   0  0  0  0  0  0  0  0  0  0  0  0
    6.2390  -35.5610  -35.2530 O   0  0  0  0  0  0  0  0  0  0  0  0
    5.6310  -32.8110  -33.1720 C   0  0  0  0  0  0  0  0  0  0  0  0
    8.1430  -33.5740  -32.9370 C   0  0  0  0  0  0  0  0  0  0  0  0
    5.4380  -31.1300  -31.4580 C   0  0  0  0  0  0  0  0  0  0  0  0
   11.7340  -33.9030  -32.8040 C   0  0  1  0  0  0  0  0  0  0  0  0
   11.9810  -31.7280  -29.3450 O   0  0  0  0  0  0  0  0  0  0  0  0
   10.1950  -33.2660  -31.4810 C   0  0  0  0  0  0  0  0  0  0  0  0
    5.5790  -35.5640  -36.2200 C   0  0  1  0  0  0  0  0  0  0  0  0
   12.6570  -33.2440  -28.0340 O   0  0  0  0  0  0  0  0  0  0  0  0
    9.6140  -33.6270  -32.5570 C   0  0  1  0  0  0  0  0  0  0  0  0
    6.6380  -34.6480  -34.3240 C   0  0  0  0  0  0  0  0  0  0  0  0
    5.7070  -33.7240  -34.0960 C   0  0  0  0  0  0  0  0  0  0  0  0
    7.5270  -32.4740  -32.2840 C   0  0  0  0  0  0  0  0  0  0  0  0
    3.6980  -34.6790  -38.0560 C   0  0  0  0  0  0  0  0  0  0  0  0
   11.6150  -33.6910  -31.4760 C   0  0  1  0  0  0  0  0  0  0  0  0
    4.0350  -35.2240  -36.5190 C   0  0  2  0  0  0  0  0  0  0  0  0
   12.8390  -33.7100  -33.5870 O   0  0  0  0  0  0  0  0  0  0  0  0
    9.4700  -36.0790  -34.4800 C   0  0  0  0  0  0  0  0  0  0  0  0
    5.3040  -34.9800  -37.5990 C   0  0  1  0  0  0  0  0  0  0  0  0
   12.2950  -32.8980  -29.2010 C   0  0  0  0  0  0  0  0  0  0  0  0
    8.5590  -35.3040  -34.5400 O   0  0  0  0  0  0  0  0  0  0  0  0
  1  8  1  0
  2  5  1  0
  2 10  1  0
  2 15  1  0
  3  9  1  0
  4 25  1  0
  6 16  1  0
  7  3  1  0
  8 15  1  0
  8 18  2  0
 10 22  1  1
 10 20  1  0
 11 25  2  0
 12 20  1  0
 13  6  1  1
 15 12  1  1
 16 17  1  0
 16  1  2  0
 17  7  2  0
 18  3  1  0
 20  4  1  1
 21 19  1  6
 21 13  1  0
 23  5  1  0
 24 19  1  6
 24 21  1  0
 24 13  1  0
 25 14  1  0
 26 23  1  0
 26  1  1  0
M  END
$$$$

     RDKit          3D

 20 23  0  0  0  0  0  0  0  0999 V2000
   11.0420  -33.6080  -32.1250 O   0  0  0  0  0  0  0  0  0  0  0  0
    5.0820  -35.1730  -35.2860 C   0  0  0  0  0  0  0  0  0  0  0  0
   10.1870  -35.0800  -33.6680 C   0  0  0  0  0  0  0  0  0  0  0  0
    6.1370  -33.3000  -33.3630 C   0  0  0  0  0  0  0  0  0  0  0  0
    8.4920  -36.5050  -34.5980 C   0  0  0  0  0  0  0  0  0  0  0  0
   10.3420  -33.8490  -33.1810 C   0  0  1  0  0  0  0  0  0  0  0  0
    9.0100  -35.3870  -33.9860 C   0  0  0  0  0  0  0  0  0  0  0  0
    9.6710  -32.2880  -29.2810 O   0  0  0  0  0  0  0  0  0  0  0  0
   10.3860  -33.1360  -31.2850 C   0  0  0  0  0  0  0  0  0  0  0  0
    6.9220  -34.2290  -33.8550 C   0  0  0  0  0  0  0  0  0  0  0  0
    8.2620  -34.3440  -33.5040 N   0  0  0  0  0  0  0  0  0  0  0  0
    6.3860  -35.1800  -34.7290 C   0  0  0  0  0  0  0  0  0  0  0  0
    7.2430  -36.1880  -34.9710 C   0  0  0  0  0  0  0  0  0  0  0  0
    3.8390  -33.2630  -34.3580 C   0  0  0  0  0  0  0  0  0  0  0  0
   11.8080  -32.2640  -29.8440 C   0  0  0  0  0  0  0  0  0  0  0  0
    8.9950  -33.5760  -32.9330 C   0  0  1  0  0  0  0  0  0  0  0  0
    3.9870  -34.3650  -35.1760 C   0  0  0  0  0  0  0  0  0  0  0  0
   10.5900  -32.5760  -30.1300 C   0  0  0  0  0  0  0  0  0  0  0  0
    9.2630  -33.1810  -31.6280 C   0  0  0  0  0  0  0  0  0  0  0  0
    4.9350  -32.7250  -33.4730 C   0  0  0  0  0  0  0  0  0  0  0  0
  1  9  1  0
  2 17  2  0
  2 12  1  0
  5  7  2  0
  6  3  1  1
  6 16  1  0
  6  1  1  0
  7  3  1  0
  7 11  1  0
  9 18  1  0
 10 11  1  0
 10  4  2  0
 16 11  1  1
 12 10  1  0
 13 12  2  0
 13  5  1  0
 14 20  2  0
 16 19  1  0
 17 14  1  0
 18 15  1  0
 18  8  2  0
 19  9  2  0
 20  4  1  0
M  END
$$$$

     RDKit          3D

 33 37  0  0  0  0  0  0  0  0999 V2000
    5.5510  -32.0630  -31.7680 C   0  0  0  0  0  0  0  0  0  0  0  0
    8.9430  -32.4770  -30.6910 C   0  0  0  0  0  0  0  0  0  0  0  0
    3.5250  -34.3300  -35.8410 C   0  0  0  0  0  0  0  0  0  0  0  0
    9.8850  -33.2030  -31.0210 C   0  0  1  0  0  0  0  0  0  0  0  0
    9.2070  -33.5830  -33.3210 C   0  0  1  0  0  0  0  0  0  0  0  0
    7.1990  -33.8400  -33.7890 N   0  0  0  0  0  0  0  0  0  0  0  0
    6.7590  -32.0180  -31.2270 C   0  0  0  0  0  0  0  0  0  0  0  0
    4.6500  -36.1630  -37.0280 C   0  0  0  0  0  0  0  0  0  0  0  0
    9.4630  -34.2200  -34.5670 C   0  0  0  0  0  0  0  0  0  0  0  0
    8.0180  -32.1950  -31.7750 C   0  0  2  0  0  0  0  0  0  0  0  0
    2.8560  -34.8360  -36.6710 C   0  0  0  0  0  0  0  0  0  0  0  0
    4.6420  -31.5270  -31.0250 O   0  0  0  0  0  0  0  0  0  0  0  0
    5.5250  -34.4860  -34.3680 N   0  0  0  0  0  0  0  0  0  0  0  0
   11.1770  -32.6020  -31.1350 C   0  0  1  0  0  0  0  0  0  0  0  0
    9.6700  -37.2570  -33.5840 C   0  0  0  0  0  0  0  0  0  0  0  0
   11.6640  -35.4600  -33.6390 O   0  0  0  0  0  0  0  0  0  0  0  0
   11.7060  -33.2370  -29.8190 C   0  0  2  0  0  0  0  0  0  0  0  0
    5.4340  -35.6710  -36.4020 C   0  0  0  0  0  0  0  0  0  0  0  0
   10.4590  -33.9440  -29.6890 O   0  0  0  0  0  0  0  0  0  0  0  0
    7.9080  -33.3200  -32.8130 C   0  0  2  0  0  0  0  0  0  0  0  0
    3.2980  -35.9900  -37.3960 C   0  0  0  0  0  0  0  0  0  0  0  0
    5.1700  -32.7330  -32.8760 C   0  0  0  0  0  0  0  0  0  0  0  0
   11.8330  -32.1730  -28.7370 C   0  0  0  0  0  0  0  0  0  0  0  0
    9.9780  -36.4070  -34.7590 C   0  0  0  0  0  0  0  0  0  0  0  0
    4.8500  -34.6410  -35.3820 C   0  0  0  0  0  0  0  0  0  0  0  0
    9.8940  -34.0410  -32.2400 C   0  0  1  0  0  0  0  0  0  0  0  0
    3.4330  -31.0800  -31.0510 C   0  0  0  0  0  0  0  0  0  0  0  0
   10.5730  -35.1430  -34.5490 C   0  0  1  0  0  0  0  0  0  0  0  0
   11.3610  -33.6230  -32.3350 C   0  0  1  0  0  0  0  0  0  0  0  0
   12.9620  -34.1080  -29.8080 C   0  0  0  0  0  0  0  0  0  0  0  0
   11.8430  -33.0090  -33.5380 O   0  0  0  0  0  0  0  0  0  0  0  0
    5.9930  -33.6450  -33.6300 C   0  0  0  0  0  0  0  0  0  0  0  0
    3.9200  -32.6580  -33.1970 O   0  0  0  0  0  0  0  0  0  0  0  0
  1  7  1  0
  1 12  1  0
  3 25  2  0
  4  2  1  1
  4 19  1  0
  5  9  1  6
  5 20  1  0
 26  5  1  6
  6 32  2  0
  8 18  2  0
  9 28  1  0
 10  7  1  1
 10  2  1  0
 11  3  1  0
 13 32  1  0
 14  4  1  0
 14 17  1  1
 17 30  1  6
 17 19  1  0
 17 23  1  0
 18 25  1  0
 20  6  1  6
 20 10  1  0
 21  8  1  0
 21 11  2  0
 22  1  2  0
 24 28  1  0
 24 15  1  0
 25 13  1  0
 26  4  1  0
 27 12  1  0
 28 16  1  1
 29 26  1  0
 29 14  1  0
 29 31  1  6
 32 22  1  0
 33 22  1  0
M  END
$$$$

     RDKit          3D

 19 21  0  0  0  0  0  0  0  0999 V2000
    4.1810  -34.5940  -35.1750 O   0  0  0  0  0  0  0  0  0  0  0  0
    8.7470  -35.8550  -34.9830 F   0  0  0  0  0  0  0  0  0  0  0  0
    5.7700  -33.4670  -33.8760 C   0  0  0  0  0  0  0  0  0  0  0  0
    6.6060  -35.1970  -35.1190 C   0  0  0  0  0  0  0  0  0  0  0  0
    8.8100  -33.8090  -32.3660 C   0  0  1  0  0  0  0  0  0  0  0  0
    7.1210  -32.2990  -32.2580 F   0  0  0  0  0  0  0  0  0  0  0  0
   11.6210  -33.7810  -32.0720 C   0  0  0  0  0  0  0  0  0  0  0  0
    9.5110  -33.3500  -31.4780 C   0  0  1  0  0  0  0  0  0  0  0  0
    7.9950  -34.1540  -33.3510 C   0  0  0  0  0  0  0  0  0  0  0  0
   10.3030  -34.9990  -33.4390 O   0  0  0  0  0  0  0  0  0  0  0  0
    5.5380  -34.6100  -34.7740 C   0  0  0  0  0  0  0  0  0  0  0  0
    8.9090  -32.3560  -29.4420 F   0  0  0  0  0  0  0  0  0  0  0  0
    9.9070  -32.8190  -30.2040 C   0  0  0  0  0  0  0  0  0  0  0  0
   11.9870  -33.3420  -30.8330 C   0  0  0  0  0  0  0  0  0  0  0  0
   10.2030  -33.9760  -32.4060 C   0  0  2  0  0  0  0  0  0  0  0  0
    6.9360  -33.2140  -33.2100 C   0  0  0  0  0  0  0  0  0  0  0  0
    4.7850  -32.5850  -33.3820 O   0  0  0  0  0  0  0  0  0  0  0  0
    7.8040  -35.0730  -34.4810 C   0  0  0  0  0  0  0  0  0  0  0  0
   11.2250  -32.8540  -29.9440 C   0  0  0  0  0  0  0  0  0  0  0  0
  1 11  1  0
  2 18  1  0
  3 17  1  0
  3 16  2  0
  4 11  2  0
  4 18  1  0
  5  9  1  6
  5  8  1  0
  7 14  1  0
  8 13  1  1
  9 16  1  0
 15 10  1  1
 11  3  1  0
 13 19  1  0
 13 12  1  0
 14 19  2  0
 15  5  1  0
 15  7  1  0
 15  8  1  0
 16  6  1  0
 18  9  2  0
M  END
$$$$

     RDKit          3D

 38 43  0  0  0  0  0  0  0  0999 V2000
    9.7050  -36.6390  -33.7530 O   0  0  0  0  0  0  0  0  0  0  0  0
    0.2210  -34.5160  -36.0010 N   0  0  0  0  0  0  0  0  0  0  0  0
    5.1400  -32.8230  -32.9620 C   0  0  0  0  0  0  0  0  0  0  0  0
    3.6070  -35.0030  -37.2520 C   0  0  0  0  0  0  0  0  0  0  0  0
    2.9960  -33.3460  -35.5910 C   0  0  0  0  0  0  0  0  0  0  0  0
    8.3930  -32.5840  -31.5830 C   0  0  0  0  0  0  0  0  0  0  0  0
   11.9400  -34.0300  -29.4660 C   0  0  0  0  0  0  0  0  0  0  0  0
    9.7940  -33.2450  -31.8470 C   0  0  1  0  0  0  0  0  0  0  0  0
    2.5320  -34.5840  -36.3480 N   0  0  0  0  0  0  0  0  0  0  0  0
   12.4000  -34.4160  -33.9190 O   0  0  0  0  0  0  0  0  0  0  0  0
    6.4500  -32.2090  -32.7770 C   0  0  2  0  0  0  0  0  0  0  0  0
    7.2790  -34.1190  -32.8690 C   0  0  0  0  0  0  0  0  0  0  0  0
    7.9650  -35.9700  -35.0960 C   0  0  1  0  0  0  0  0  0  0  0  0
   13.9690  -32.7970  -27.5200 C   0  0  0  0  0  0  0  0  0  0  0  0
    5.0950  -31.1590  -31.0790 C   0  0  0  0  0  0  0  0  0  0  0  0
   11.7970  -34.0880  -32.9950 C   0  0  0  0  0  0  0  0  0  0  0  0
   10.1760  -34.4030  -35.3310 O   0  0  0  0  0  0  0  0  0  0  0  0
    6.9520  -35.0150  -35.5640 O   0  0  0  0  0  0  0  0  0  0  0  0
    8.4770  -31.7890  -30.6850 O   0  0  0  0  0  0  0  0  0  0  0  0
    1.2180  -34.5130  -36.8250 C   0  0  0  0  0  0  0  0  0  0  0  0
    7.3250  -33.0710  -32.1270 N   0  0  0  0  0  0  0  0  0  0  0  0
    6.3320  -30.8910  -31.9700 C   0  0  0  0  0  0  0  0  0  0  0  0
    9.4940  -34.4840  -34.0220 C   0  0  1  0  0  0  0  0  0  0  0  0
    8.7270  -35.6180  -33.8860 C   0  0  1  0  0  0  0  0  0  0  0  0
    0.9820  -34.4430  -38.0650 O   0  0  0  0  0  0  0  0  0  0  0  0
    4.9570  -34.4470  -36.8490 C   0  0  0  0  0  0  0  0  0  0  0  0
    4.4830  -32.4990  -31.5390 C   0  0  0  0  0  0  0  0  0  0  0  0
    7.6730  -37.3690  -34.6310 C   0  0  0  0  0  0  0  0  0  0  0  0
   10.5800  -32.1980  -29.7020 C   0  0  0  0  0  0  0  0  0  0  0  0
   11.9010  -32.7220  -29.0290 C   0  0  1  0  0  0  0  0  0  0  0  0
   11.6280  -33.7400  -30.8000 N   0  0  0  0  0  0  0  0  0  0  0  0
   10.4080  -33.9480  -32.8700 C   0  0  2  0  0  0  0  0  0  0  0  0
   10.7170  -33.0210  -30.7920 N   0  0  0  0  0  0  0  0  0  0  0  0
    9.0050  -37.8140  -33.9950 C   0  0  0  0  0  0  0  0  0  0  0  0
    8.1890  -34.0540  -33.8940 C   0  0  1  0  0  0  0  0  0  0  0  0
    5.6810  -35.4770  -35.9260 C   0  0  0  0  0  0  0  0  0  0  0  0
   12.5970  -32.2020  -27.7870 C   0  0  0  0  0  0  0  0  0  0  0  0
   12.4000  -34.1700  -31.7010 N   0  0  0  0  0  0  0  0  0  0  0  0
  3 11  1  0
  3 27  1  0
  4 26  1  0
  4  9  1  0
  6 19  2  0
  7 30  1  0
  8  6  1  0
  8 33  1  6
  9  5  1  0
 10 16  2  0
 11 21  1  1
 11 22  1  0
 12 21  1  0
 13 18  1  1
 13 28  1  0
 13 24  1  0
 16 38  1  0
 20  9  1  0
 20  2  1  0
 21  6  1  0
 22 15  1  0
 23 17  1  6
 23 35  1  0
 23 24  1  0
 23 32  1  0
 24  1  1  1
 25 20  2  0
 26 36  1  0
 27 15  1  0
 28 34  1  0
 29 30  1  0
 30 37  1  1
 31 33  1  0
 31  7  1  0
 32 16  1  6
 32  8  1  0
 33 29  1  0
 34  1  1  0
 35 24  1  0
 35 12  1  1
 36 18  1  0
 37 14  1  0
 38 31  1  0
M  END
$$$$

     RDKit          3D

 19 20  0  0  0  0  0  0  0  0999 V2000
   11.1150  -34.1870  -30.0530 N   0  0  0  0  0  0  0  0  0  0  0  0
    6.5180  -34.7860  -34.7620 C   0  0  0  0  0  0  0  0  0  0  0  0
    9.2350  -35.2040  -34.8210 O   0  0  0  0  0  0  0  0  0  0  0  0
    7.0960  -33.3230  -33.0620 C   0  0  0  0  0  0  0  0  0  0  0  0
    7.6690  -32.4140  -32.4310 N   0  0  0  0  0  0  0  0  0  0  0  0
    6.7460  -35.4160  -35.6690 F   0  0  0  0  0  0  0  0  0  0  0  0
    5.3140  -32.0910  -32.1710 O   0  0  0  0  0  0  0  0  0  0  0  0
    5.2790  -34.5950  -34.5850 C   0  0  0  0  0  0  0  0  0  0  0  0
   11.8360  -34.0380  -33.4510 C   0  0  0  0  0  0  0  0  0  0  0  0
    5.6870  -33.0090  -33.0840 C   0  0  0  0  0  0  0  0  0  0  0  0
    9.8210  -33.9120  -31.6550 C   0  0  0  0  0  0  0  0  0  0  0  0
    4.0320  -32.1720  -31.5120 C   0  0  0  0  0  0  0  0  0  0  0  0
    4.7760  -33.6870  -33.7620 C   0  0  0  0  0  0  0  0  0  0  0  0
   12.2090  -33.6980  -32.0640 C   0  0  0  0  0  0  0  0  0  0  0  0
    8.6770  -34.4010  -34.0080 C   0  0  0  0  0  0  0  0  0  0  0  0
   10.6880  -34.6160  -33.6240 N   0  0  0  0  0  0  0  0  0  0  0  0
    7.3890  -34.1850  -34.0130 C   0  0  0  0  0  0  0  0  0  0  0  0
    9.6420  -33.8330  -33.0400 C   0  0  2  0  0  0  0  0  0  0  0  0
   10.9890  -33.9930  -31.1350 C   0  0  0  0  0  0  0  0  0  0  0  0
  2  8  2  0
  2 17  1  0
  3 15  2  0
  4  5  1  0
  6  2  1  0
  7 12  1  0
  8 13  1  0
  9 14  1  0
 10  4  1  0
 10  7  1  0
 11 19  1  0
 13 10  2  0
 14 19  1  0
 16  9  1  0
 16 18  1  0
 17 15  1  0
 17  4  2  0
 18 15  1  1
 18 11  1  0
 19  1  2  0
M  END
$$$$

     RDKit          3D

 37 41  0  0  0  0  0  0  0  0999 V2000
    3.1220  -33.4890  -37.3500 C   0  0  0  0  0  0  0  0  0  0  0  0
    4.4780  -32.5020  -32.8780 O   0  0  0  0  0  0  0  0  0  0  0  0
   12.4710  -34.5650  -33.5460 O   0  0  0  0  0  0  0  0  0  0  0  0
    7.4920  -32.2500  -30.7400 C   0  0  0  0  0  0  0  0  0  0  0  0
   10.7340  -36.9660  -34.0100 O   0  0  0  0  0  0  0  0  0  0  0  0
    9.1460  -33.5210  -32.8350 C   0  0  0  0  0  0  0  0  0  0  0  0
    7.8600  -32.0560  -31.6490 C   0  0  0  0  0  0  0  0  0  0  0  0
   11.3380  -33.7380  -29.5590 O   0  0  0  0  0  0  0  0  0  0  0  0
    6.4210  -32.9240  -33.2800 C   0  0  2  0  0  0  0  0  0  0  0  0
    8.4740  -32.5010  -31.9910 C   0  0  0  0  0  0  0  0  0  0  0  0
    1.6260  -33.2120  -35.5990 C   0  0  2  0  0  0  0  0  0  0  0  0
    8.8400  -32.7310  -32.2160 C   0  0  1  0  0  0  0  0  0  0  0  0
    0.1880  -33.3620  -35.6150 C   0  0  0  0  0  0  0  0  0  0  0  0
    9.7030  -36.5900  -33.3950 C   0  0  0  0  0  0  0  0  0  0  0  0
    3.7000  -33.6690  -35.3050 C   0  0  0  0  0  0  0  0  0  0  0  0
   10.1300  -33.4200  -31.0480 C   0  0  1  0  0  0  0  0  0  0  0  0
   13.0660  -34.0280  -31.2030 C   0  0  0  0  0  0  0  0  0  0  0  0
    3.9210  -34.5850  -37.1220 O   0  0  0  0  0  0  0  0  0  0  0  0
    6.9330  -34.1060  -34.2540 C   0  0  1  0  0  0  0  0  0  0  0  0
   11.5250  -34.7270  -33.1040 C   0  0  1  0  0  0  0  0  0  0  0  0
    6.3060  -31.8440  -31.7650 S   0  0  0  0  0  0  0  0  0  0  0  0
   -0.4590  -32.0980  -35.0450 O   0  0  0  0  0  0  0  0  0  0  0  0
    1.9280  -33.9840  -36.7060 C   0  0  0  0  0  0  0  0  0  0  0  0
    5.9680  -34.4460  -35.3580 C   0  0  0  0  0  0  0  0  0  0  0  0
   12.3410  -34.1770  -32.0800 N   0  0  0  0  0  0  0  0  0  0  0  0
   11.7400  -33.6720  -31.8690 C   0  0  2  0  0  0  0  0  0  0  0  0
    5.0500  -33.0570  -33.5370 C   0  0  0  0  0  0  0  0  0  0  0  0
   12.5290  -34.0970  -29.9650 C   0  0  0  0  0  0  0  0  0  0  0  0
    4.9780  -33.6720  -34.7140 C   0  0  0  0  0  0  0  0  0  0  0  0
    8.4420  -34.3210  -33.8480 C   0  0  0  0  0  0  0  0  0  0  0  0
   11.3900  -33.3850  -30.5430 C   0  0  2  0  0  0  0  0  0  0  0  0
    9.7030  -32.6360  -30.7280 C   0  0  0  0  0  0  0  0  0  0  0  0
    9.0140  -35.4880  -34.3420 C   0  0  0  0  0  0  0  0  0  0  0  0
   10.1920  -34.4950  -32.9180 C   0  0  0  0  0  0  0  0  0  0  0  0
    2.5180  -32.8420  -34.6900 C   0  0  0  0  0  0  0  0  0  0  0  0
    9.5440  -31.8260  -29.8950 F   0  0  0  0  0  0  0  0  0  0  0  0
    7.2720  -32.5390  -33.0230 C   0  0  2  0  0  0  0  0  0  0  0  0
  1 18  1  0
  1 23  1  0
 20  3  1  6
  5 14  1  0
  7  4  2  0
  9 27  1  6
  9 37  1  0
 10  7  1  0
 11 23  1  1
 11 35  1  0
 12  6  1  0
 12 10  1  1
 12 32  1  0
 13 11  1  0
 13 22  1  0
 15 29  2  3
 15 35  1  0
 16 32  1  6
 16 31  1  0
 17 28  1  0
 19 30  1  0
 19  9  1  0
 20 34  1  0
 20 25  1  0
 24 29  1  0
 19 24  1  6
 26 25  1  1
 25 17  1  0
 26 16  1  0
 26 31  1  0
 27  2  2  0
 28  8  1  0
 29 27  1  0
 30  6  2  0
 31  8  1  1
 32 36  1  0
 33 30  1  0
 33 14  1  0
 34  6  1  0
 37 10  1  0
 37 21  1  1
M  END
$$$$

     RDKit          3D

 27 30  0  0  0  0  0  0  0  0999 V2000
    6.2550  -33.5010  -33.9740 C   0  0  0  0  0  0  0  0  0  0  0  0
    8.2180  -32.3010  -31.1340 C   0  0  0  0  0  0  0  0  0  0  0  0
    9.3550  -35.9920  -33.2080 C   0  0  2  0  0  0  0  0  0  0  0  0
   11.4460  -31.7780  -29.5120 C   0  0  0  0  0  0  0  0  0  0  0  0
    7.5920  -33.6560  -32.9500 C   0  0  1  0  0  0  0  0  0  0  0  0
    9.5280  -32.7040  -30.9690 C   0  0  0  0  0  0  0  0  0  0  0  0
    9.3780  -31.6610  -28.8960 O   0  0  0  0  0  0  0  0  0  0  0  0
    5.4370  -35.1120  -35.8190 C   0  0  1  0  0  0  0  0  0  0  0  0
    9.6990  -34.9360  -32.2350 C   0  0  2  0  0  0  0  0  0  0  0  0
    9.6500  -35.9810  -34.9680 O   0  0  0  0  0  0  0  0  0  0  0  0
    4.1960  -35.8810  -36.1740 C   0  0  0  0  0  0  0  0  0  0  0  0
    9.8200  -34.0610  -32.8960 C   0  0  1  0  0  0  0  0  0  0  0  0
   11.0010  -33.7500  -29.3650 S   0  0  0  0  0  0  0  0  0  0  0  0
   10.4140  -35.3560  -33.0870 C   0  0  2  0  0  0  0  0  0  0  0  0
    6.3460  -31.8760  -32.1200 O   0  0  0  0  0  0  0  0  0  0  0  0
    7.3320  -36.1340  -34.5960 C   0  0  0  0  0  0  0  0  0  0  0  0
   11.6100  -33.0960  -32.1830 C   0  0  0  0  0  0  0  0  0  0  0  0
    7.4840  -35.5260  -36.8960 C   0  0  0  0  0  0  0  0  0  0  0  0
    8.9930  -33.5810  -33.5290 C   0  0  0  0  0  0  0  0  0  0  0  0
   11.6470  -35.7130  -33.8340 C   0  0  0  0  0  0  0  0  0  0  0  0
   10.3360  -33.2820  -31.7580 C   0  0  0  0  0  0  0  0  0  0  0  0
    8.6720  -35.5730  -34.4740 C   0  0  1  0  0  0  0  0  0  0  0  0
   10.1560  -32.2790  -29.7290 C   0  0  2  0  0  0  0  0  0  0  0  0
    5.5510  -33.9470  -36.7360 O   0  0  0  0  0  0  0  0  0  0  0  0
    7.4610  -32.4420  -32.1190 C   0  0  0  0  0  0  0  0  0  0  0  0
    5.2660  -34.5970  -34.3200 C   0  0  0  0  0  0  0  0  0  0  0  0
    6.6480  -36.0120  -35.8910 C   0  0  2  0  0  0  0  0  0  0  0  0
  5  1  1  6
  2  6  2  0
  3 14  1  0
  3  9  1  0
  5 25  1  0
  6 23  1  0
  8 26  1  0
 22 10  1  6
  8 11  1  6
  9 12  1  6
 12 21  1  1
 14 12  1  0
 14  9  1  0
 15 25  2  0
 16 22  1  0
 17 21  2  0
 27 18  1  6
 19  5  1  0
 19 12  1  0
 14 20  1  1
 21  6  1  0
  3 22  1  6
 23  4  1  6
 23 13  1  0
 23  7  1  0
 24  8  1  0
 25  2  1  0
 26  1  1  0
 27  8  1  0
 27 16  1  0
M  END
$$$$

     RDKit          3D

 28 32  0  0  0  0  0  0  0  0999 V2000
    3.9120  -34.8680  -35.9390 O   0  0  0  0  0  0  0  0  0  0  0  0
    5.1530  -32.1160  -32.8030 S   0  0  0  0  0  0  0  0  0  0  0  0
   10.3750  -31.9040  -29.5760 C   0  0  0  0  0  0  0  0  0  0  0  0
   11.1530  -33.0920  -31.5230 C   0  0  0  0  0  0  0  0  0  0  0  0
    7.2420  -35.7160  -36.9080 C   0  0  0  0  0  0  0  0  0  0  0  0
    9.8380  -33.1100  -32.0030 C   0  0  0  0  0  0  0  0  0  0  0  0
    9.3590  -36.6600  -33.5520 C   0  0  0  0  0  0  0  0  0  0  0  0
    9.2170  -35.2770  -33.0380 C   0  0  1  0  0  0  0  0  0  0  0  0
    4.8200  -33.2060  -34.0440 C   0  0  0  0  0  0  0  0  0  0  0  0
    8.7290  -32.5060  -31.3310 C   0  0  0  0  0  0  0  0  0  0  0  0
    8.0300  -31.1980  -29.5130 O   0  0  0  0  0  0  0  0  0  0  0  0
    6.8630  -33.7950  -33.1430 C   0  0  1  0  0  0  0  0  0  0  0  0
   10.1870  -34.2300  -33.5410 C   0  0  2  0  0  0  0  0  0  0  0  0
    6.6020  -32.7340  -32.4380 C   0  0  0  0  0  0  0  0  0  0  0  0
   10.5920  -37.0900  -34.0420 O   0  0  0  0  0  0  0  0  0  0  0  0
    7.7880  -34.9170  -32.8760 C   0  0  0  0  0  0  0  0  0  0  0  0
    3.0070  -35.4750  -36.8570 C   0  0  0  0  0  0  0  0  0  0  0  0
    9.1220  -31.8410  -30.1210 C   0  0  0  0  0  0  0  0  0  0  0  0
    6.0180  -33.9730  -34.1900 C   0  0  0  0  0  0  0  0  0  0  0  0
    5.2950  -35.0090  -36.0070 C   0  0  0  0  0  0  0  0  0  0  0  0
    6.2070  -34.7010  -35.1900 C   0  0  0  0  0  0  0  0  0  0  0  0
    5.3450  -36.4790  -38.0170 O   0  0  0  0  0  0  0  0  0  0  0  0
    5.9340  -35.7470  -37.0340 C   0  0  2  0  0  0  0  0  0  0  0  0
    7.3980  -32.1160  -31.5830 N   0  0  0  0  0  0  0  0  0  0  0  0
   11.5500  -34.8790  -33.9660 C   0  0  0  0  0  0  0  0  0  0  0  0
    7.4350  -35.2170  -35.6410 O   0  0  0  0  0  0  0  0  0  0  0  0
   11.1590  -35.9710  -34.9250 C   0  0  0  0  0  0  0  0  0  0  0  0
   11.4400  -32.5110  -30.2590 C   0  0  0  0  0  0  0  0  0  0  0  0
  2 14  1  0
  4 28  2  0
  5 26  1  0
  6  4  1  0
  6 10  2  0
  8  7  1  6
  8 16  1  0
  9  2  1  0
 10 18  1  0
 12 16  1  1
 12 14  1  0
 13 25  1  1
 13  8  1  0
 13  6  1  0
 14 24  2  3
 15  7  1  0
 17  1  1  0
 18  3  2  0
 18 11  1  0
 19 21  1  0
 19  9  1  0
 19 12  1  0
 20  1  1  0
 20 21  2  0
 23 22  1  1
 23  5  1  0
 23 20  1  0
 24 10  1  0
 26 21  1  0
 27 15  1  0
 27 25  1  0
 28  3  1  0
M  END
$$$$

     RDKit          3D

 21 23  0  0  0  0  0  0  0  0999 V2000
    3.5310  -33.7920  -34.7350 C   0  0  0  0  0  0  0  0  0  0  0  0
    5.8340  -35.2150  -35.2690 C   0  0  0  0  0  0  0  0  0  0  0  0
    9.2900  -34.8370  -34.2960 C   0  0  0  0  0  0  0  0  0  0  0  0
    4.5100  -35.4280  -35.9480 C   0  0  0  0  0  0  0  0  0  0  0  0
   11.4410  -34.4980  -34.1910 O   0  0  0  0  0  0  0  0  0  0  0  0
    9.7540  -32.8060  -30.5870 C   0  0  0  0  0  0  0  0  0  0  0  0
    8.5070  -33.8350  -32.9850 C   0  0  0  0  0  0  0  0  0  0  0  0
   10.3300  -33.5160  -31.5960 C   0  0  0  0  0  0  0  0  0  0  0  0
   10.2370  -34.5530  -33.4480 C   0  0  1  0  0  0  0  0  0  0  0  0
    9.8200  -33.9740  -32.7560 C   0  0  1  0  0  0  0  0  0  0  0  0
    7.2100  -33.8330  -33.7310 C   0  0  2  0  0  0  0  0  0  0  0  0
   10.2500  -32.3910  -29.5410 C   0  0  0  0  0  0  0  0  0  0  0  0
   12.1590  -33.2940  -30.2080 C   0  0  0  0  0  0  0  0  0  0  0  0
   11.5010  -32.6270  -29.2660 C   0  0  0  0  0  0  0  0  0  0  0  0
    4.6350  -33.5280  -34.0260 C   0  0  0  0  0  0  0  0  0  0  0  0
    3.4090  -34.7240  -35.7460 N   0  0  0  0  0  0  0  0  0  0  0  0
   11.6350  -33.6880  -31.3490 C   0  0  0  0  0  0  0  0  0  0  0  0
    5.8540  -34.2140  -34.4620 C   0  0  0  0  0  0  0  0  0  0  0  0
    7.8270  -34.9410  -34.2950 C   0  0  0  0  0  0  0  0  0  0  0  0
   11.9550  -32.3200  -28.0950 F   0  0  0  0  0  0  0  0  0  0  0  0
    7.6360  -33.3650  -32.9340 C   0  0  0  0  0  0  0  0  0  0  0  0
  1 15  2  0
  2 18  2  0
  3 19  1  0
  3  9  1  0
  4 16  2  0
  4  2  1  0
  6 12  2  0
  7 21  1  0
  7 10  1  0
  8 17  2  0
  8  6  1  0
  9  5  1  6
  9 10  1  0
 10  8  1  1
 11 18  1  1
 11 21  1  0
 12 14  1  0
 13 14  2  0
 14 20  1  0
 16  1  1  0
 17 13  1  0
 18 15  1  0
 19 11  1  0
M  END
$$$$

     RDKit          3D

 24 27  0  0  0  0  0  0  0  0999 V2000
   11.2650  -36.1640  -34.6560 C   0  0  0  0  0  0  0  0  0  0  0  0
    5.7720  -34.5230  -35.6490 C   0  0  2  0  0  0  0  0  0  0  0  0
    3.0150  -34.1300  -36.4590 N   0  0  0  0  0  0  0  0  0  0  0  0
    4.6070  -34.2440  -34.7880 C   0  0  0  0  0  0  0  0  0  0  0  0
    3.2290  -34.1940  -35.2940 N   0  0  0  0  0  0  0  0  0  0  0  0
   12.1110  -33.5840  -30.2790 C   0  0  0  0  0  0  0  0  0  0  0  0
   11.3010  -33.7650  -31.2410 C   0  0  0  0  0  0  0  0  0  0  0  0
    9.7250  -32.3940  -30.4420 C   0  0  0  0  0  0  0  0  0  0  0  0
    6.8210  -33.8440  -33.5160 C   0  0  0  0  0  0  0  0  0  0  0  0
    5.0010  -35.3450  -36.7810 C   0  0  0  0  0  0  0  0  0  0  0  0
    8.5330  -35.1440  -34.5720 C   0  0  0  0  0  0  0  0  0  0  0  0
   11.4610  -31.8980  -27.1030 O   0  0  0  0  0  0  0  0  0  0  0  0
   12.4290  -32.6290  -27.9710 C   0  0  0  0  0  0  0  0  0  0  0  0
   10.5890  -32.0400  -29.3640 C   0  0  0  0  0  0  0  0  0  0  0  0
    3.6370  -34.9880  -37.2670 C   0  0  0  0  0  0  0  0  0  0  0  0
    7.2120  -34.6880  -34.4580 C   0  0  0  0  0  0  0  0  0  0  0  0
    9.0060  -33.8350  -32.5860 C   0  0  0  0  0  0  0  0  0  0  0  0
   10.7090  -35.1960  -33.7620 C   0  0  1  0  0  0  0  0  0  0  0  0
   11.8350  -34.7230  -34.2770 C   0  0  0  0  0  0  0  0  0  0  0  0
    7.9150  -32.5700  -31.8550 F   0  0  0  0  0  0  0  0  0  0  0  0
    8.0340  -33.5700  -32.6270 C   0  0  0  0  0  0  0  0  0  0  0  0
    9.9780  -33.2620  -31.3810 C   0  0  0  0  0  0  0  0  0  0  0  0
    9.5510  -34.7100  -33.5210 C   0  0  0  0  0  0  0  0  0  0  0  0
   11.7180  -32.7430  -29.2270 C   0  0  0  0  0  0  0  0  0  0  0  0
  1 19  1  0
  1 18  1  0
  2  4  1  0
  2 16  1  1
  3  5  1  0
  5  4  2  0
  6 24  2  0
  7  6  1  0
  8 14  2  0
  9 21  2  0
 10  2  1  0
 11 16  2  0
 11 23  1  0
 13 12  1  0
 14 24  1  0
 15 10  1  0
 15  3  1  0
 16  9  1  0
 17 22  1  0
 18 23  1  6
 19 18  1  0
 21 17  1  0
 21 20  1  0
 22  7  2  0
 22  8  1  0
 23 17  2  0
 24 13  1  0
M  END
$$$$

     RDKit          3D

 23 26  0  0  0  0  0  0  0  0999 V2000
   10.5530  -35.8510  -33.3430 C   0  0  0  0  0  0  0  0  0  0  0  0
    4.1460  -33.4700  -34.2940 O   0  0  0  0  0  0  0  0  0  0  0  0
   11.5900  -35.3240  -34.3870 C   0  0  0  0  0  0  0  0  0  0  0  0
    6.9880  -32.4310  -32.1910 C   0  0  0  0  0  0  0  0  0  0  0  0
    4.0600  -34.3860  -35.4450 C   0  0  2  0  0  0  0  0  0  0  0  0
   12.4590  -33.9700  -30.5640 C   0  0  0  0  0  0  0  0  0  0  0  0
    6.3020  -34.2630  -34.2310 N   0  0  0  0  0  0  0  0  0  0  0  0
    5.1540  -34.7800  -36.3510 C   0  0  0  0  0  0  0  0  0  0  0  0
    7.8940  -33.4030  -32.6570 C   0  0  0  0  0  0  0  0  0  0  0  0
    5.7420  -32.4290  -32.7430 C   0  0  0  0  0  0  0  0  0  0  0  0
    9.4370  -34.8560  -33.2020 C   0  0  0  0  0  0  0  0  0  0  0  0
    8.4030  -35.0020  -34.0410 N   0  0  0  0  0  0  0  0  0  0  0  0
    9.1630  -33.8850  -32.3300 C   0  0  2  0  0  0  0  0  0  0  0  0
    2.5720  -35.0770  -37.2190 C   0  0  0  0  0  0  0  0  0  0  0  0
   10.0540  -33.4530  -31.1210 C   0  0  0  0  0  0  0  0  0  0  0  0
    7.5500  -34.2160  -33.7000 C   0  0  0  0  0  0  0  0  0  0  0  0
    2.8040  -34.0320  -36.2120 C   0  0  0  0  0  0  0  0  0  0  0  0
   12.5900  -34.3100  -33.6740 C   0  0  0  0  0  0  0  0  0  0  0  0
    5.3940  -33.4080  -33.7120 C   0  0  0  0  0  0  0  0  0  0  0  0
   11.5220  -33.6050  -31.4560 C   0  0  0  0  0  0  0  0  0  0  0  0
    4.8240  -34.5280  -37.8110 C   0  0  0  0  0  0  0  0  0  0  0  0
    3.6370  -35.1430  -38.2060 O   0  0  0  0  0  0  0  0  0  0  0  0
   11.9790  -33.2240  -32.8660 C   0  0  0  0  0  0  0  0  0  0  0  0
  1 11  1  0
  2 19  1  0
  3 18  1  0
  3  1  1  0
  5  2  1  6
  7 19  1  0
  7 16  2  0
  8  5  1  0
  9 13  1  0
  9  4  2  0
 10  4  1  0
 11 13  1  0
 12 16  1  0
 12 11  2  0
 13 15  1  1
 14 17  1  0
 16  9  1  0
 17  5  1  0
 18 23  1  0
 19 10  2  0
 20 15  1  0
 20  6  2  0
 21  8  1  0
 22 21  1  0
 22 14  1  0
 23 20  1  0
M  END
$$$$

     RDKit          3D

 18 24  0  0  0  0  0  0  0  0999 V2000
    8.9600  -35.4650  -33.9270 C   0  0  0  0  0  0  0  0  0  0  0  0
    8.0960  -32.3880  -31.5990 C   0  0  0  0  0  0  0  0  0  0  0  0
    8.9950  -34.5510  -32.7730 C   0  0  2  0  0  0  0  0  0  0  0  0
    6.1640  -32.0940  -32.6520 C   0  0  0  0  0  0  0  0  0  0  0  0
    6.9570  -31.7250  -31.6060 C   0  0  0  0  0  0  0  0  0  0  0  0
    7.8680  -33.9890  -33.3480 C   0  0  1  0  0  0  0  0  0  0  0  0
    5.4640  -33.5930  -34.3310 C   0  0  0  0  0  0  0  0  0  0  0  0
   10.1000  -34.1040  -32.8200 C   0  0  2  0  0  0  0  0  0  0  0  0
    9.2770  -32.7740  -31.3350 C   0  0  0  0  0  0  0  0  0  0  0  0
    6.4150  -35.5090  -35.1680 C   0  0  0  0  0  0  0  0  0  0  0  0
   10.0220  -34.7470  -32.1180 C   0  0  1  0  0  0  0  0  0  0  0  0
    7.3480  -35.2690  -34.5400 C   0  0  0  0  0  0  0  0  0  0  0  0
    6.4530  -33.2190  -33.4720 C   0  0  0  0  0  0  0  0  0  0  0  0
    5.4220  -34.5610  -35.3020 C   0  0  0  0  0  0  0  0  0  0  0  0
    8.4910  -33.3620  -32.4340 C   0  0  1  0  0  0  0  0  0  0  0  0
   10.4720  -33.9290  -30.7760 C   0  0  0  0  0  0  0  0  0  0  0  0
   10.2590  -33.6620  -31.7490 C   0  0  2  0  0  0  0  0  0  0  0  0
    8.1250  -34.7270  -34.0500 C   0  0  0  0  0  0  0  0  0  0  0  0
  2  9  1  0
  3 15  1  0
  3 11  1  0
  4  5  1  0
  5  2  2  0
  6 18  1  6
  3  6  1  6
  6 15  1  0
  7 13  2  0
  8  3  1  0
  8 11  1  0
  8 17  1  1
 10 12  2  0
 11 17  1  1
 12 18  2  0
 13  6  1  0
 13  4  1  0
 14 10  1  0
 14  7  1  0
 15  2  1  1
 15  9  1  0
 17  9  1  0
 17 16  1  6
 18  1  1  0
M  END
$$$$

     RDKit          3D

 14 16  0  0  0  0  0  0  0  0999 V2000
    8.3280  -32.4680  -31.5200 C   0  0  0  0  0  0  0  0  0  0  0  0
    8.4540  -33.8250  -33.1490 C   0  0  0  0  0  0  0  0  0  0  0  0
    9.8650  -33.0710  -31.2750 S   0  0  0  0  0  0  0  0  0  0  0  0
   10.8190  -35.6040  -33.8570 C   0  0  0  0  0  0  0  0  0  0  0  0
   10.7470  -34.8840  -32.8870 C   0  0  0  0  0  0  0  0  0  0  0  0
    7.4520  -31.5480  -30.7750 N   0  0  0  0  0  0  0  0  0  0  0  0
    6.2730  -32.3620  -32.3930 C   0  0  0  0  0  0  0  0  0  0  0  0
    5.1030  -32.6760  -33.2390 C   0  0  0  0  0  0  0  0  0  0  0  0
    9.7210  -34.0350  -32.6000 C   0  0  1  0  0  0  0  0  0  0  0  0
    6.2380  -31.5080  -31.2880 C   0  0  0  0  0  0  0  0  0  0  0  0
    8.0210  -34.2400  -34.1680 C   0  0  0  0  0  0  0  0  0  0  0  0
    7.5270  -32.9790  -32.4580 N   0  0  0  0  0  0  0  0  0  0  0  0
    9.8220  -35.6330  -34.9680 C   0  0  0  0  0  0  0  0  0  0  0  0
    8.5910  -35.1680  -35.2170 C   0  0  0  0  0  0  0  0  0  0  0  0
  1  3  1  0
  1  6  2  0
  2  9  1  0
  2 12  1  0
  4  5  2  0
  7 10  2  0
  8  7  1  0
  9  5  1  0
  9  3  1  1
 10  6  1  0
 11  2  2  0
 12  7  1  0
 12  1  1  0
 13  4  1  0
 14 13  2  0
 14 11  1  0
M  END
$$$$

     RDKit          3D

 30 37  0  0  0  0  0  0  0  0999 V2000
    7.4180  -33.8280  -33.7000 C   0  0  1  0  0  0  0  0  0  0  0  0
   11.2730  -34.0020  -31.2710 C   0  0  0  0  0  0  0  0  0  0  0  0
    9.8750  -31.4690  -29.0830 C   0  0  0  0  0  0  0  0  0  0  0  0
   10.8050  -31.4030  -28.1650 C   0  0  0  0  0  0  0  0  0  0  0  0
    3.1520  -33.9380  -39.9100 C   0  0  0  0  0  0  0  0  0  0  0  0
   10.0120  -32.3340  -30.0600 C   0  0  0  0  0  0  0  0  0  0  0  0
    3.0500  -34.0010  -38.6300 C   0  0  2  0  0  0  0  0  0  0  0  0
    5.9930  -34.3850  -34.8490 C   0  0  2  0  0  0  0  0  0  0  0  0
    4.2760  -34.6420  -38.0030 C   0  0  0  0  0  0  0  0  0  0  0  0
    4.3000  -35.3700  -36.7560 C   0  0  2  0  0  0  0  0  0  0  0  0
    9.5610  -35.0500  -33.6770 C   0  0  2  0  0  0  0  0  0  0  0  0
   11.9500  -32.1320  -28.1700 C   0  0  0  0  0  0  0  0  0  0  0  0
   11.9870  -32.9910  -29.1960 C   0  0  0  0  0  0  0  0  0  0  0  0
   10.0160  -36.3720  -33.5310 C   0  0  0  0  0  0  0  0  0  0  0  0
    2.0180  -35.0580  -38.0660 C   0  0  0  0  0  0  0  0  0  0  0  0
    5.5370  -33.4890  -34.0800 C   0  0  0  0  0  0  0  0  0  0  0  0
    6.7770  -32.9760  -33.1000 C   0  0  0  0  0  0  0  0  0  0  0  0
   11.0890  -33.1390  -30.1670 C   0  0  0  0  0  0  0  0  0  0  0  0
   10.6250  -33.6040  -32.0520 C   0  0  0  0  0  0  0  0  0  0  0  0
    8.9240  -32.4830  -31.2290 C   0  0  0  0  0  0  0  0  0  0  0  0
    5.4260  -34.1360  -38.2140 O   0  0  0  0  0  0  0  0  0  0  0  0
    8.0400  -34.7320  -34.0550 C   0  0  2  0  0  0  0  0  0  0  0  0
   11.0300  -35.3740  -33.9350 C   0  0  0  0  0  0  0  0  0  0  0  0
    6.4340  -35.5240  -35.3040 C   0  0  0  0  0  0  0  0  0  0  0  0
    1.7850  -34.9060  -36.5630 C   0  0  0  0  0  0  0  0  0  0  0  0
    3.1730  -34.9070  -35.9760 C   0  0  2  0  0  0  0  0  0  0  0  0
    4.9380  -34.5230  -35.8430 N   0  0  0  0  0  0  0  0  0  0  0  0
    8.9320  -33.2800  -32.2480 N   0  0  0  0  0  0  0  0  0  0  0  0
    9.2740  -33.9850  -32.8000 C   0  0  1  0  0  0  0  0  0  0  0  0
    7.6370  -35.8960  -34.8160 C   0  0  0  0  0  0  0  0  0  0  0  0
  1 17  1  1
  2 18  1  0
  3  4  2  0
  6  3  1  0
  7  5  1  6
  7 15  1  0
  7  9  1  0
  8 24  1  0
  8 16  1  0
  8  1  1  0
 10  9  1  0
 10 26  1  0
 10 27  1  1
 11 14  1  1
 11 29  1  0
 12  4  1  0
 13 12  2  0
 15 25  1  0
 16 17  1  0
 18  6  2  0
 18 13  1  0
 19  2  1  0
 20  6  1  0
 21  9  2  0
 22 30  1  6
 22  1  1  0
 22 11  1  0
 22 29  1  0
 23 11  1  0
 23 14  1  0
 24 30  1  0
 26 25  1  6
 26 27  1  0
  8 27  1  6
 28 20  1  0
 29 28  1  0
 29 19  1  6
M  END
$$$$

     RDKit          3D

 21 27  0  0  0  0  0  0  0  0999 V2000
    7.4400  -32.7620  -32.4610 C   0  0  0  0  0  0  0  0  0  0  0  0
    5.5730  -31.6290  -31.3220 C   0  0  0  0  0  0  0  0  0  0  0  0
    6.9700  -31.9260  -31.5240 C   0  0  1  0  0  0  0  0  0  0  0  0
    6.7070  -35.8390  -36.8570 C   0  0  0  0  0  0  0  0  0  0  0  0
    8.7060  -35.0330  -33.8500 C   0  0  2  0  0  0  0  0  0  0  0  0
    4.9220  -34.9450  -35.9760 C   0  0  0  0  0  0  0  0  0  0  0  0
    7.6720  -35.6260  -35.9120 C   0  0  2  0  0  0  0  0  0  0  0  0
    9.2980  -36.2340  -34.2970 C   0  0  0  0  0  0  0  0  0  0  0  0
   10.8030  -34.4040  -31.1600 C   0  0  0  0  0  0  0  0  0  0  0  0
    8.6280  -36.0820  -35.2260 C   0  0  0  0  0  0  0  0  0  0  0  0
    9.2100  -34.1640  -33.1610 C   0  0  2  0  0  0  0  0  0  0  0  0
    8.6440  -33.1350  -32.2270 C   0  0  0  0  0  0  0  0  0  0  0  0
    6.8100  -33.4510  -33.3590 C   0  0  0  0  0  0  0  0  0  0  0  0
    8.0920  -31.7120  -30.7890 N   0  0  0  0  0  0  0  0  0  0  0  0
    7.4350  -35.0910  -34.8140 C   0  0  2  0  0  0  0  0  0  0  0  0
    5.5480  -35.2950  -37.1670 C   0  0  0  0  0  0  0  0  0  0  0  0
    5.8540  -34.8230  -34.8180 C   0  0  0  0  0  0  0  0  0  0  0  0
    7.8200  -34.2950  -34.0110 C   0  0  2  0  0  0  0  0  0  0  0  0
    9.5600  -35.3340  -33.3930 C   0  0  2  0  0  0  0  0  0  0  0  0
    9.0740  -32.4020  -31.1930 N   0  0  0  0  0  0  0  0  0  0  0  0
   10.2680  -34.3180  -32.6680 C   0  0  2  0  0  0  0  0  0  0  0  0
  1 12  2  0
  1  3  1  0
  3  2  1  1
  3 14  1  0
  7  4  1  1
  5 19  1  0
  5 11  1  0
  6 17  1  0
  7 10  1  0
  7 15  1  0
 19  8  1  6
 10 15  1  0
 10  8  1  0
 11 21  1  0
 11 12  1  6
 12 20  1  0
 13  1  1  0
 15 18  1  0
 16  4  1  0
 16  6  1  0
 15 17  1  1
  5 18  1  1
 18 13  1  1
 19 11  1  0
 19 21  1  0
 20 14  2  0
 21  9  1  1
M  END
$$$$

     RDKit          3D

 15 17  0  0  0  0  0  0  0  0999 V2000
   10.7650  -34.1990  -32.5870 C   0  0  0  0  0  0  0  0  0  0  0  0
    9.1370  -34.9930  -34.0290 C   0  0  0  0  0  0  0  0  0  0  0  0
   10.4370  -35.0080  -33.6340 C   0  0  0  0  0  0  0  0  0  0  0  0
    6.8430  -34.0610  -33.7950 C   0  0  0  0  0  0  0  0  0  0  0  0
    6.0080  -34.8250  -34.6710 C   0  0  0  0  0  0  0  0  0  0  0  0
    2.9530  -32.9830  -33.1860 O   0  0  0  0  0  0  0  0  0  0  0  0
    4.2490  -33.4710  -33.8800 C   0  0  0  0  0  0  0  0  0  0  0  0
    7.5030  -32.4950  -32.1980 S   0  0  0  0  0  0  0  0  0  0  0  0
    5.2270  -32.6430  -33.0490 C   0  0  0  0  0  0  0  0  0  0  0  0
    8.5420  -33.2630  -32.4670 C   0  0  0  0  0  0  0  0  0  0  0  0
    6.4100  -33.1780  -33.1480 C   0  0  0  0  0  0  0  0  0  0  0  0
    9.7720  -33.2380  -32.0970 C   0  0  0  0  0  0  0  0  0  0  0  0
    4.6290  -34.4120  -34.5910 C   0  0  0  0  0  0  0  0  0  0  0  0
   11.8670  -34.2110  -31.8530 F   0  0  0  0  0  0  0  0  0  0  0  0
    8.2370  -34.1890  -33.5860 C   0  0  0  0  0  0  0  0  0  0  0  0
  1 12  2  0
  1 14  1  0
  2  3  2  0
  2 15  1  0
  3  1  1  0
  4 15  1  0
  4 11  2  0
  5 13  2  0
  5  4  1  0
  7  6  1  0
  7  9  2  0
 10  8  1  0
 10 12  1  0
 11  9  1  0
 11  8  1  0
 13  7  1  0
 15 10  2  0
M  END
$$$$

     RDKit          3D

 26 30  0  0  0  0  0  0  0  0999 V2000
    6.2710  -35.2870  -35.3380 O   0  0  0  0  0  0  0  0  0  0  0  0
   11.4420  -33.3500  -30.8780 C   0  0  2  0  0  0  0  0  0  0  0  0
    4.7410  -34.0120  -34.2080 O   0  0  0  0  0  0  0  0  0  0  0  0
   11.9170  -33.6430  -33.7140 C   0  0  0  0  0  0  0  0  0  0  0  0
    8.6020  -33.0310  -32.5220 C   0  0  0  0  0  0  0  0  0  0  0  0
    9.1430  -32.8430  -31.1880 C   0  0  0  0  0  0  0  0  0  0  0  0
   11.0530  -35.3190  -32.5200 C   0  0  0  0  0  0  0  0  0  0  0  0
    7.5200  -35.5920  -35.2320 C   0  0  2  0  0  0  0  0  0  0  0  0
    6.9920  -34.4670  -33.9800 C   0  0  2  0  0  0  0  0  0  0  0  0
    8.9200  -35.3570  -36.4000 C   0  0  0  0  0  0  0  0  0  0  0  0
    7.5690  -32.7210  -32.6110 O   0  0  0  0  0  0  0  0  0  0  0  0
   10.8960  -36.1160  -33.5580 C   0  0  0  0  0  0  0  0  0  0  0  0
    7.8640  -33.0380  -33.1710 C   0  0  2  0  0  0  0  0  0  0  0  0
   10.7910  -37.0280  -33.8980 C   0  0  2  0  0  0  0  0  0  0  0  0
    8.4500  -35.7170  -35.5210 C   0  0  2  0  0  0  0  0  0  0  0  0
   10.8230  -37.6480  -34.3530 C   0  0  0  0  0  0  0  0  0  0  0  0
    6.1820  -34.2000  -34.3080 C   0  0  1  0  0  0  0  0  0  0  0  0
   10.7930  -33.8460  -30.0870 O   0  0  0  0  0  0  0  0  0  0  0  0
    9.3480  -36.5880  -34.3600 C   0  0  1  0  0  0  0  0  0  0  0  0
   10.0510  -37.1130  -34.3680 C   0  0  0  0  0  0  0  0  0  0  0  0
    6.8450  -32.8980  -33.3260 C   0  0  0  0  0  0  0  0  0  0  0  0
    9.9340  -33.2570  -31.7000 C   0  0  1  0  0  0  0  0  0  0  0  0
    8.2070  -34.3420  -33.8820 C   0  0  1  0  0  0  0  0  0  0  0  0
   11.0510  -33.6480  -32.2570 C   0  0  1  0  0  0  0  0  0  0  0  0
    9.3650  -35.0440  -34.0210 C   0  0  2  0  0  0  0  0  0  0  0  0
   12.9020  -34.4170  -33.7610 C   0  0  0  0  0  0  0  0  0  0  0  0
  1 17  1  0
  2 18  1  1
 24  4  1  6
  7 24  1  0
  8  1  1  6
  8  9  1  0
  9 23  1  0
 15 10  1  6
 12  7  2  3
 13 11  1  0
 13  5  1  1
 14 12  1  0
 15  8  1  0
 15 19  1  0
 15 25  1  0
 14 16  1  6
 17  3  1  1
  9 17  1  6
 25 19  1  1
 19 20  1  6
 20 16  1  0
 20 14  1  0
 21 11  1  0
 22  6  1  6
 22  2  1  0
 23 13  1  1
 24 22  1  0
 24  2  1  0
 25 23  1  0
 26  4  2  0
M  END
$$$$

     RDKit          3D

 15 16  0  0  0  0  0  0  0  0999 V2000
    8.1350  -33.9810  -33.9270 C   0  0  0  0  0  0  0  0  0  0  0  0
    7.7610  -33.7900  -33.3240 C   0  0  0  0  0  0  0  0  0  0  0  0
    6.5040  -33.9770  -33.7480 C   0  0  2  0  0  0  0  0  0  0  0  0
    6.2880  -31.8770  -32.1210 C   0  0  0  0  0  0  0  0  0  0  0  0
    8.1780  -35.2190  -35.0250 C   0  0  0  0  0  0  0  0  0  0  0  0
    3.2450  -32.8970  -34.6010 C   0  0  0  0  0  0  0  0  0  0  0  0
    8.7690  -34.9260  -34.1440 C   0  0  0  0  0  0  0  0  0  0  0  0
    5.5080  -33.3610  -33.4150 C   0  0  0  0  0  0  0  0  0  0  0  0
    4.5480  -34.3920  -35.3330 C   0  0  0  0  0  0  0  0  0  0  0  0
    6.7690  -33.4710  -33.4980 C   0  0  1  0  0  0  0  0  0  0  0  0
    4.4630  -33.4530  -34.2480 C   0  0  0  0  0  0  0  0  0  0  0  0
    5.5830  -32.5740  -32.7560 C   0  0  2  0  0  0  0  0  0  0  0  0
    5.7870  -34.9320  -35.1250 C   0  0  0  0  0  0  0  0  0  0  0  0
    4.3770  -32.2120  -32.1990 O   0  0  0  0  0  0  0  0  0  0  0  0
    6.8810  -34.9850  -34.7950 C   0  0  2  0  0  0  0  0  0  0  0  0
  1  2  1  0
  3 10  1  0
  3  8  1  6
  5 15  1  0
  5  7  1  0
  6 11  1  0
  7  1  1  0
  8 12  1  0
  9 13  1  0
  9 11  1  0
 10  2  1  1
 10 12  1  0
 12 14  1  0
 12  4  1  6
 15 13  1  6
 15  3  1  0
M  END
$$$$

     RDKit          3D

 31 35  0  0  0  0  0  0  0  0999 V2000
    6.7490  -34.6450  -37.9780 C   0  0  0  0  0  0  0  0  0  0  0  0
    2.9010  -34.5590  -35.1230 C   0  0  0  0  0  0  0  0  0  0  0  0
    5.6810  -34.6840  -35.5280 C   0  0  0  0  0  0  0  0  0  0  0  0
    5.1350  -33.6340  -34.5630 C   0  0  0  0  0  0  0  0  0  0  0  0
    5.5320  -33.1170  -33.8820 O   0  0  0  0  0  0  0  0  0  0  0  0
    6.1070  -32.7010  -32.9090 C   0  0  0  0  0  0  0  0  0  0  0  0
   10.1600  -34.6740  -32.8430 C   0  0  0  0  0  0  0  0  0  0  0  0
    9.0380  -36.8640  -34.3470 C   0  0  0  0  0  0  0  0  0  0  0  0
    5.5420  -31.7360  -31.8450 C   0  0  0  0  0  0  0  0  0  0  0  0
   13.1350  -33.9350  -31.9780 O   0  0  0  0  0  0  0  0  0  0  0  0
    5.4700  -35.0140  -37.7760 C   0  0  0  0  0  0  0  0  0  0  0  0
    2.9010  -34.0000  -37.3950 C   0  0  0  0  0  0  0  0  0  0  0  0
    7.3660  -33.0250  -33.0180 C   0  0  0  0  0  0  0  0  0  0  0  0
   10.7620  -35.2320  -33.9350 C   0  0  1  0  0  0  0  0  0  0  0  0
    4.8160  -35.1350  -38.8190 O   0  0  0  0  0  0  0  0  0  0  0  0
   12.1980  -34.9570  -34.0090 C   0  0  0  0  0  0  0  0  0  0  0  0
   10.3080  -36.2240  -34.6800 O   0  0  0  0  0  0  0  0  0  0  0  0
    2.8310  -36.4430  -36.7870 C   0  0  0  0  0  0  0  0  0  0  0  0
    9.6760  -33.0790  -31.2550 C   0  0  2  0  0  0  0  0  0  0  0  0
    8.2930  -32.8190  -31.7570 N   0  0  0  0  0  0  0  0  0  0  0  0
    3.5780  -35.0270  -36.3910 C   0  0  2  0  0  0  0  0  0  0  0  0
   11.8930  -33.2580  -32.4290 C   0  0  2  0  0  0  0  0  0  0  0  0
    4.9650  -34.9820  -36.5800 C   0  0  2  0  0  0  0  0  0  0  0  0
    8.6850  -31.7020  -29.9810 N   0  0  0  0  0  0  0  0  0  0  0  0
    9.8250  -32.1950  -30.3050 C   0  0  0  0  0  0  0  0  0  0  0  0
    6.5370  -31.5930  -31.0480 C   0  0  0  0  0  0  0  0  0  0  0  0
    3.5380  -33.2290  -34.5020 C   0  0  0  0  0  0  0  0  0  0  0  0
   12.6870  -35.4340  -35.0150 O   0  0  0  0  0  0  0  0  0  0  0  0
   10.5050  -33.6970  -32.0610 C   0  0  0  0  0  0  0  0  0  0  0  0
   12.7910  -33.7990  -33.3030 C   0  0  1  0  0  0  0  0  0  0  0  0
    7.9360  -32.0830  -30.9490 C   0  0  0  0  0  0  0  0  0  0  0  0
  1 11  1  0
  2 27  1  0
  3  4  1  0
  4 27  1  0
  4  5  1  0
  5  6  1  0
  6  9  2  0
  7 29  2  0
  9 26  1  0
 21 12  1  6
 13  6  1  0
 13 20  1  0
 14 17  1  1
 14  7  1  0
 15 11  2  0
 16 14  1  0
 17  8  1  0
 18 21  1  0
 19 29  1  6
 19 25  1  0
 20 19  1  0
 20 31  1  0
 21  2  1  0
 22 29  1  0
 22 10  1  1
 23 11  1  6
 23 21  1  0
 23  3  1  0
 25 24  1  0
 26 31  2  0
 28 16  2  0
 30 16  1  0
 30 22  1  0
 30 10  1  1
 31 24  1  0
M  END
$$$$

     RDKit          3D

 22 29  0  0  0  0  0  0  0  0999 V2000
    5.0170  -33.4520  -33.6480 C   0  0  0  0  0  0  0  0  0  0  0  0
    8.9040  -36.0300  -33.7960 C   0  0  0  0  0  0  0  0  0  0  0  0
    7.5970  -33.1130  -32.6580 C   0  0  0  0  0  0  0  0  0  0  0  0
   11.1410  -35.5520  -34.0880 C   0  0  0  0  0  0  0  0  0  0  0  0
   10.7120  -36.0290  -34.7950 C   0  0  0  0  0  0  0  0  0  0  0  0
    8.2130  -32.0690  -30.8600 C   0  0  0  0  0  0  0  0  0  0  0  0
    3.5700  -31.7300  -31.5920 O   0  0  0  0  0  0  0  0  0  0  0  0
    9.5800  -33.2450  -32.0190 C   0  0  0  0  0  0  0  0  0  0  0  0
    5.6970  -31.5710  -30.4120 O   0  0  0  0  0  0  0  0  0  0  0  0
    7.7720  -33.8930  -33.7740 C   0  0  2  0  0  0  0  0  0  0  0  0
    6.1960  -34.1840  -35.6940 C   0  0  0  0  0  0  0  0  0  0  0  0
    6.9280  -34.0020  -34.8570 C   0  0  2  0  0  0  0  0  0  0  0  0
    8.9250  -34.7710  -34.0340 C   0  0  2  0  0  0  0  0  0  0  0  0
    7.3650  -32.3870  -31.6750 C   0  0  0  0  0  0  0  0  0  0  0  0
    5.5370  -34.1430  -34.7320 C   0  0  2  0  0  0  0  0  0  0  0  0
    9.7790  -36.5680  -33.9070 C   0  0  0  0  0  0  0  0  0  0  0  0
   10.5990  -34.6120  -33.9020 C   0  0  0  0  0  0  0  0  0  0  0  0
    4.5790  -32.1380  -31.9130 C   0  0  0  0  0  0  0  0  0  0  0  0
    6.3840  -33.2540  -33.9300 C   0  0  2  0  0  0  0  0  0  0  0  0
    9.4210  -32.5170  -30.8310 C   0  0  0  0  0  0  0  0  0  0  0  0
    8.8180  -33.2170  -32.9050 C   0  0  2  0  0  0  0  0  0  0  0  0
    5.8930  -31.9800  -31.3650 C   0  0  0  0  0  0  0  0  0  0  0  0
  3 14  1  0
  4 17  1  0
  5  4  1  0
  5 16  1  0
  6 20  1  0
  8 20  1  0
 10 13  1  0
 10 21  1  0
 10  3  1  1
 12 11  1  6
 12 15  1  0
 12 19  1  0
 12 10  1  0
 13 17  1  1
 13  2  1  0
 13 21  1  0
 14 22  1  0
 14  6  2  0
 15 11  1  6
 15 19  1  0
 15  1  1  0
 16  2  1  0
 18  7  2  0
 18 22  1  0
 19  1  1  1
 19  3  1  0
 21  3  1  0
 21  8  1  6
 22  9  2  0
M  END
$$$$

     RDKit          3D

 18 18  0  0  0  0  0  0  0  0999 V2000
    8.5590  -34.8470  -33.9120 N   0  0  0  0  0  0  0  0  0  0  0  0
    7.0230  -34.6620  -34.2920 C   0  0  1  0  0  0  0  0  0  0  0  0
    6.0510  -35.6400  -36.2610 C   0  0  0  0  0  0  0  0  0  0  0  0
    5.4830  -34.4310  -34.4130 C   0  0  2  0  0  0  0  0  0  0  0  0
    9.5860  -34.4220  -33.5470 C   0  0  0  0  0  0  0  0  0  0  0  0
    5.1230  -35.4660  -36.4900 C   0  0  0  0  0  0  0  0  0  0  0  0
    7.6030  -34.1100  -33.6000 C   0  0  0  0  0  0  0  0  0  0  0  0
    6.2370  -33.9710  -34.4500 C   0  0  0  0  0  0  0  0  0  0  0  0
    7.9050  -35.8580  -35.0140 C   0  0  0  0  0  0  0  0  0  0  0  0
    4.4400  -34.1790  -34.8920 C   0  0  0  0  0  0  0  0  0  0  0  0
    8.4800  -34.0240  -33.4000 C   0  0  0  0  0  0  0  0  0  0  0  0
    6.7470  -35.7230  -35.2960 C   0  0  1  0  0  0  0  0  0  0  0  0
    6.0630  -32.6640  -32.8830 C   0  0  0  0  0  0  0  0  0  0  0  0
    9.5130  -34.8430  -33.5120 C   0  0  0  0  0  0  0  0  0  0  0  0
    8.8500  -34.1550  -33.5170 C   0  0  0  0  0  0  0  0  0  0  0  0
    5.3140  -33.5310  -33.3410 C   0  0  0  0  0  0  0  0  0  0  0  0
    3.0780  -34.4950  -36.8830 F   0  0  0  0  0  0  0  0  0  0  0  0
    4.4550  -34.5840  -36.1000 C   0  0  2  0  0  0  0  0  0  0  0  0
  1 15  2  0
  2  7  1  0
  3 12  1  0
  4 16  1  1
  5 15  1  0
  5 14  1  0
  6  3  1  0
  6 18  1  0
  7 11  2  3
  8  4  1  0
  2  8  1  6
 10  4  1  0
 12  9  1  6
 12  2  1  0
 15 11  1  0
 16 13  2  0
 18 17  1  1
 18 10  1  0
M  END
$$$$

     RDKit          3D

 17 19  0  0  0  0  0  0  0  0999 V2000
    7.0680  -33.2430  -33.1130 C   0  0  1  0  0  0  0  0  0  0  0  0
    7.9700  -33.1220  -32.5280 C   0  0  1  0  0  0  0  0  0  0  0  0
    8.5530  -35.5590  -32.8680 C   0  0  1  0  0  0  0  0  0  0  0  0
    8.7420  -35.8620  -35.3220 C   0  0  0  0  0  0  0  0  0  0  0  0
    4.8130  -34.7170  -35.3360 C   0  0  0  0  0  0  0  0  0  0  0  0
    6.5890  -33.7590  -33.7910 C   0  0  1  0  0  0  0  0  0  0  0  0
    5.9180  -34.5230  -35.2540 C   0  0  0  0  0  0  0  0  0  0  0  0
   10.2130  -33.7420  -33.0920 C   0  0  0  0  0  0  0  0  0  0  0  0
    6.8590  -34.6900  -34.4320 C   0  0  1  0  0  0  0  0  0  0  0  0
    7.3560  -31.5220  -31.0830 F   0  0  0  0  0  0  0  0  0  0  0  0
    5.8190  -33.1650  -33.1850 O   0  0  0  0  0  0  0  0  0  0  0  0
    8.1950  -34.9510  -34.2180 C   0  0  1  0  0  0  0  0  0  0  0  0
    9.4900  -36.1330  -32.6430 F   0  0  0  0  0  0  0  0  0  0  0  0
    8.0310  -35.2590  -36.8940 S   0  0  0  0  0  0  0  0  0  0  0  0
    8.1720  -32.4830  -31.3730 C   0  0  0  0  0  0  0  0  0  0  0  0
    8.8630  -34.1610  -33.4120 C   0  0  2  0  0  0  0  0  0  0  0  0
    8.9980  -32.6790  -30.5930 O   0  0  0  0  0  0  0  0  0  0  0  0
  1 11  1  1
  1  2  1  0
  2 15  1  1
  3 13  1  6
  5  7  2  0
  6 11  1  1
  6  1  1  0
  9  7  1  6
  9 12  1  0
  9  6  1  0
 12  4  1  6
 12 16  1  0
 12  3  1  0
 14  4  1  0
 15 10  1  0
 15 17  2  0
 16  8  1  6
 16  3  1  0
 16  2  1  0
M  END
$$$$

     RDKit          3D

 26 30  0  0  0  0  0  0  0  0999 V2000
    5.5800  -33.3880  -34.0810 C   0  0  0  0  0  0  0  0  0  0  0  0
   10.2350  -35.5590  -33.1380 C   0  0  0  0  0  0  0  0  0  0  0  0
    5.9700  -32.4070  -33.1750 C   0  0  0  0  0  0  0  0  0  0  0  0
    5.2680  -35.7830  -35.8990 O   0  0  0  0  0  0  0  0  0  0  0  0
    9.4730  -33.7100  -32.1420 C   0  0  2  0  0  0  0  0  0  0  0  0
   11.0920  -34.3980  -32.1710 C   0  0  1  0  0  0  0  0  0  0  0  0
    9.8270  -32.9070  -30.8290 C   0  0  0  0  0  0  0  0  0  0  0  0
    7.2400  -36.5840  -35.1680 C   0  0  0  0  0  0  0  0  0  0  0  0
    7.1110  -32.2750  -32.5370 C   0  0  0  0  0  0  0  0  0  0  0  0
    8.8120  -32.3160  -30.2020 O   0  0  0  0  0  0  0  0  0  0  0  0
   10.8880  -32.6990  -29.9470 C   0  0  0  0  0  0  0  0  0  0  0  0
   11.0820  -35.4420  -33.7770 S   0  0  0  0  0  0  0  0  0  0  0  0
    8.4420  -36.4770  -34.3050 C   0  0  0  0  0  0  0  0  0  0  0  0
    8.7970  -35.1160  -33.7080 C   0  0  2  0  0  0  0  0  0  0  0  0
   10.5720  -33.6580  -31.9720 C   0  0  0  0  0  0  0  0  0  0  0  0
   10.2930  -34.6150  -33.1520 C   0  0  1  0  0  0  0  0  0  0  0  0
    9.1290  -37.3060  -33.9810 C   0  0  0  0  0  0  0  0  0  0  0  0
    9.9500  -37.8990  -33.6650 O   0  0  0  0  0  0  0  0  0  0  0  0
   12.0980  -33.6880  -31.5640 C   0  0  0  0  0  0  0  0  0  0  0  0
    6.3760  -35.5860  -35.0800 C   0  0  0  0  0  0  0  0  0  0  0  0
    6.5140  -34.3830  -34.2500 C   0  0  0  0  0  0  0  0  0  0  0  0
   12.2550  -33.0430  -30.2540 C   0  0  0  0  0  0  0  0  0  0  0  0
    4.4530  -33.3590  -34.6280 O   0  0  0  0  0  0  0  0  0  0  0  0
    9.6970  -34.2370  -32.7090 C   0  0  0  0  0  0  0  0  0  0  0  0
    8.2100  -33.3840  -32.5890 C   0  0  0  0  0  0  0  0  0  0  0  0
    7.7760  -34.3010  -33.5410 C   0  0  0  0  0  0  0  0  0  0  0  0
  1  3  1  0
  3  9  2  0
  4 20  1  0
  5 15  1  6
  6 15  1  0
  6 19  1  6
  7 10  1  0
  7 11  1  0
  8 20  2  0
  8 13  1  0
 12 16  1  0
 12  2  1  0
 13 17  2  0
 14 13  1  0
 14 26  1  0
 14 24  1  1
 16  2  1  1
 16 24  1  0
 16  6  1  0
 17 18  2  0
 19 22  1  0
 21 20  1  0
 21  1  1  0
 21 26  1  0
 22 11  1  0
 23  1  2  0
 24  5  1  0
 25  9  1  0
 25  5  1  0
 26 25  2  0
M  END
$$$$

     RDKit          3D

 32 37  0  0  0  0  0  0  0  0999 V2000
    8.0200  -34.1220  -34.3280 C   0  0  0  0  0  0  0  0  0  0  0  0
    6.3970  -34.6310  -35.2240 C   0  0  1  0  0  0  0  0  0  0  0  0
   10.7260  -33.8020  -29.8050 N   0  0  0  0  0  0  0  0  0  0  0  0
    6.5460  -33.0940  -33.0310 O   0  0  0  0  0  0  0  0  0  0  0  0
    8.2050  -32.2690  -32.3210 C   0  0  2  0  0  0  0  0  0  0  0  0
    9.0970  -36.2170  -34.4650 C   0  0  0  0  0  0  0  0  0  0  0  0
    5.8430  -33.7610  -34.2470 C   0  0  0  0  0  0  0  0  0  0  0  0
    4.1200  -32.9180  -32.8460 C   0  0  0  0  0  0  0  0  0  0  0  0
   12.6780  -34.1860  -33.4530 C   0  0  0  0  0  0  0  0  0  0  0  0
    5.2420  -32.3180  -32.2100 C   0  0  0  0  0  0  0  0  0  0  0  0
    9.9820  -33.7030  -30.5940 C   0  0  0  0  0  0  0  0  0  0  0  0
    7.7960  -32.4060  -32.9810 C   0  0  0  0  0  0  0  0  0  0  0  0
    4.3280  -34.6670  -35.7270 O   0  0  0  0  0  0  0  0  0  0  0  0
    7.5190  -34.9700  -35.0960 C   0  0  0  0  0  0  0  0  0  0  0  0
   11.4800  -34.0010  -32.8030 C   0  0  1  0  0  0  0  0  0  0  0  0
    5.5590  -35.1090  -35.5990 C   0  0  0  0  0  0  0  0  0  0  0  0
    8.1300  -33.2460  -30.7420 C   0  0  0  0  0  0  0  0  0  0  0  0
    8.7830  -33.3240  -32.4950 C   0  0  1  0  0  0  0  0  0  0  0  0
    6.4990  -32.2280  -31.8830 C   0  0  2  0  0  0  0  0  0  0  0  0
   11.0220  -34.9460  -33.7020 C   0  0  2  0  0  0  0  0  0  0  0  0
    6.4980  -32.1990  -30.1770 C   0  0  0  0  0  0  0  0  0  0  0  0
    9.0220  -34.1650  -33.6230 C   0  0  0  0  0  0  0  0  0  0  0  0
    8.3010  -35.7870  -35.3170 C   0  0  0  0  0  0  0  0  0  0  0  0
    9.8710  -35.4120  -33.7860 C   0  0  0  0  0  0  0  0  0  0  0  0
   12.2780  -35.6890  -34.3130 C   0  0  0  0  0  0  0  0  0  0  0  0
    7.4470  -32.7780  -30.8560 C   0  0  1  0  0  0  0  0  0  0  0  0
    7.6530  -32.3550  -31.9490 C   0  0  0  0  0  0  0  0  0  0  0  0
   10.2220  -33.3240  -31.9160 C   0  0  1  0  0  0  0  0  0  0  0  0
   12.3580  -33.7930  -32.5120 C   0  0  0  0  0  0  0  0  0  0  0  0
    3.9500  -34.2080  -34.6310 C   0  0  0  0  0  0  0  0  0  0  0  0
    4.5660  -33.7560  -33.7970 C   0  0  0  0  0  0  0  0  0  0  0  0
    5.8500  -32.7780  -32.0200 C   0  0  2  0  0  0  0  0  0  0  0  0
  1 22  2  0
  2 14  1  1
  2  7  1  0
  4 32  1  0
  5 12  1  6
  5 27  1  0
  6 24  2  0
  7 31  1  0
  9 29  1  0
 32 10  1  6
 11  3  2  0
 13 16  1  0
 13 30  1  0
 14  1  1  0
 15 29  1  1
 15 28  1  0
 16  2  1  0
 17 11  1  0
 18 22  1  6
 18  5  1  0
 18 28  1  0
 19 32  1  0
 19 26  1  0
 19 21  1  1
 20 25  1  1
 20 15  1  0
 23 14  2  0
 23  6  1  0
 24 20  1  0
 24 22  1  0
 26 17  1  1
 26 21  1  0
 27 19  1  0
 27 26  1  0
 28 11  1  1
 30 31  1  0
 31  8  2  0
M  END
$$$$

     RDKit          3D

 30 35  0  0  0  0  0  0  0  0999 V2000
   11.9090  -33.1210  -28.5090 C   0  0  2  0  0  0  0  0  0  0  0  0
    8.8450  -33.4860  -32.0230 C   0  0  0  0  0  0  0  0  0  0  0  0
   11.2570  -36.0080  -34.3240 C   0  0  0  0  0  0  0  0  0  0  0  0
   10.6160  -34.2390  -32.8730 C   0  0  1  0  0  0  0  0  0  0  0  0
   11.4970  -32.5990  -29.8890 C   0  0  2  0  0  0  0  0  0  0  0  0
    4.6380  -34.9580  -36.1180 C   0  0  0  0  0  0  0  0  0  0  0  0
   11.6520  -32.2130  -27.6230 O   0  0  0  0  0  0  0  0  0  0  0  0
   10.5850  -33.6400  -30.8440 C   0  0  1  0  0  0  0  0  0  0  0  0
    8.8130  -32.8000  -31.5110 C   0  0  0  0  0  0  0  0  0  0  0  0
    8.9630  -36.3180  -34.2830 C   0  0  0  0  0  0  0  0  0  0  0  0
    6.3520  -32.6370  -32.7250 C   0  0  0  0  0  0  0  0  0  0  0  0
    6.7180  -33.4750  -33.2270 C   0  0  0  0  0  0  0  0  0  0  0  0
   12.9260  -33.5730  -29.4230 O   0  0  0  0  0  0  0  0  0  0  0  0
    5.1480  -34.2590  -35.0560 C   0  0  0  0  0  0  0  0  0  0  0  0
   11.9980  -34.0490  -32.7780 C   0  0  0  0  0  0  0  0  0  0  0  0
    8.0150  -32.0060  -31.4260 C   0  0  0  0  0  0  0  0  0  0  0  0
    5.0050  -32.4900  -33.0370 O   0  0  0  0  0  0  0  0  0  0  0  0
   10.5420  -37.9980  -34.1510 O   0  0  0  0  0  0  0  0  0  0  0  0
    6.3390  -34.3940  -34.4170 C   0  0  0  0  0  0  0  0  0  0  0  0
    8.8060  -35.2920  -33.9960 C   0  0  1  0  0  0  0  0  0  0  0  0
   10.2330  -34.9820  -33.5750 C   0  0  0  0  0  0  0  0  0  0  0  0
    7.2130  -35.3010  -35.0530 C   0  0  0  0  0  0  0  0  0  0  0  0
    5.4960  -35.8410  -36.7720 C   0  0  0  0  0  0  0  0  0  0  0  0
    6.7830  -36.0100  -36.2100 C   0  0  0  0  0  0  0  0  0  0  0  0
   13.1150  -33.6670  -32.9070 C   0  0  0  0  0  0  0  0  0  0  0  0
    6.7520  -31.6950  -31.8610 C   0  0  0  0  0  0  0  0  0  0  0  0
    8.1560  -34.1920  -33.0840 C   0  0  0  0  0  0  0  0  0  0  0  0
   10.4330  -36.8530  -34.3920 C   0  0  0  0  0  0  0  0  0  0  0  0
   10.4800  -34.2530  -29.6220 F   0  0  0  0  0  0  0  0  0  0  0  0
    9.7470  -33.9060  -31.9240 C   0  0  1  0  0  0  0  0  0  0  0  0
  1  7  1  1
 30  2  1  6
  2  9  2  0
  4 15  1  1
  4 30  1  0
  5  8  1  0
  5 13  1  6
  5  1  1  0
  6 14  2  0
  8 29  1  1
  9 16  1  0
 11 17  1  0
 11 26  1  0
 12 27  2  0
 12 11  1  0
 13  1  1  0
 14 19  1  0
 19 12  1  0
 20 10  1  1
 20 21  1  0
 20 27  1  0
 21  3  1  0
 21  4  1  0
 22 19  2  0
 22 20  1  0
 23 24  2  0
 23  6  1  0
 24 22  1  0
 25 15  3  0
 26 16  1  0
 27  2  1  0
 28  3  1  0
 28 10  1  0
 28 18  2  0
 30  8  1  0
M  END
$$$$

     RDKit          3D

 18 19  0  0  0  0  0  0  0  0999 V2000
    8.5830  -35.4080  -35.7830 C   0  0  0  0  0  0  0  0  0  0  0  0
    7.9140  -32.1090  -32.1360 C   0  0  0  0  0  0  0  0  0  0  0  0
    6.3970  -34.7520  -34.3370 C   0  0  0  0  0  0  0  0  0  0  0  0
    4.9990  -32.9010  -33.5510 C   0  0  0  0  0  0  0  0  0  0  0  0
    8.2150  -35.8670  -33.5200 O   0  0  0  0  0  0  0  0  0  0  0  0
    3.5810  -34.0120  -35.2160 N   0  0  0  0  0  0  0  0  0  0  0  0
    9.1630  -32.6560  -31.4730 C   0  0  0  0  0  0  0  0  0  0  0  0
    9.7150  -33.9100  -31.7820 C   0  0  0  0  0  0  0  0  0  0  0  0
   10.8880  -34.2590  -31.1190 C   0  0  0  0  0  0  0  0  0  0  0  0
    7.0010  -33.1680  -32.4330 C   0  0  0  0  0  0  0  0  0  0  0  0
   11.3920  -33.5840  -30.0570 C   0  0  0  0  0  0  0  0  0  0  0  0
    5.6010  -35.1970  -35.3260 C   0  0  0  0  0  0  0  0  0  0  0  0
    3.8820  -33.1550  -34.2390 C   0  0  0  0  0  0  0  0  0  0  0  0
   10.7040  -32.4850  -29.6210 C   0  0  0  0  0  0  0  0  0  0  0  0
    9.6440  -32.0120  -30.3790 C   0  0  0  0  0  0  0  0  0  0  0  0
    7.7350  -35.3270  -34.4720 C   0  0  0  0  0  0  0  0  0  0  0  0
    4.3170  -35.0050  -35.7090 C   0  0  0  0  0  0  0  0  0  0  0  0
    6.2330  -33.4900  -33.5540 C   0  0  1  0  0  0  0  0  0  0  0  0
  1 16  1  0
  2  7  1  0
  3 18  1  0
  6 13  1  0
  7 15  1  0
  8  7  2  0
  8  9  1  0
  9 11  2  0
 10  2  1  0
 11 14  1  0
 12  3  2  0
 13  4  2  0
 15 14  2  0
 16  3  1  0
 16  5  2  0
 17 12  1  0
 17  6  2  0
 18  4  1  0
 18 10  1  1
M  END
$$$$

     RDKit          3D

 27 31  0  0  0  0  0  0  0  0999 V2000
    9.8190  -38.1200  -33.3950 C   0  0  0  0  0  0  0  0  0  0  0  0
   10.4380  -32.9400  -31.4140 C   0  0  1  0  0  0  0  0  0  0  0  0
    8.9390  -33.0590  -31.9910 C   0  0  0  0  0  0  0  0  0  0  0  0
    8.6040  -33.8650  -33.0820 C   0  0  0  0  0  0  0  0  0  0  0  0
   12.0520  -33.7400  -29.8380 F   0  0  0  0  0  0  0  0  0  0  0  0
    6.7610  -35.3930  -36.5710 O   0  0  0  0  0  0  0  0  0  0  0  0
   10.2330  -34.7960  -31.4020 O   0  0  0  0  0  0  0  0  0  0  0  0
    9.4780  -37.2600  -34.3990 C   0  0  2  0  0  0  0  0  0  0  0  0
    6.5210  -32.9480  -32.6650 C   0  0  0  0  0  0  0  0  0  0  0  0
    4.5350  -33.4440  -33.8860 C   0  0  0  0  0  0  0  0  0  0  0  0
   12.4590  -33.6880  -32.1420 F   0  0  0  0  0  0  0  0  0  0  0  0
    5.3990  -34.3400  -34.6610 C   0  0  0  0  0  0  0  0  0  0  0  0
    7.3780  -32.0850  -31.6010 C   0  0  0  0  0  0  0  0  0  0  0  0
    4.6200  -31.8070  -32.2040 O   0  0  0  0  0  0  0  0  0  0  0  0
    5.1660  -32.6400  -32.8930 C   0  0  0  0  0  0  0  0  0  0  0  0
    7.3370  -35.2980  -35.4630 C   0  0  0  0  0  0  0  0  0  0  0  0
    9.3440  -35.0020  -33.2770 C   0  0  2  0  0  0  0  0  0  0  0  0
   11.1650  -35.7780  -33.1340 O   0  0  0  0  0  0  0  0  0  0  0  0
   10.2950  -35.2670  -32.3030 C   0  0  0  0  0  0  0  0  0  0  0  0
    6.6800  -34.5060  -34.4550 C   0  0  0  0  0  0  0  0  0  0  0  0
   11.9990  -33.1370  -31.3700 C   0  0  1  0  0  0  0  0  0  0  0  0
    8.6910  -35.2030  -35.5660 O   0  0  0  0  0  0  0  0  0  0  0  0
    7.3190  -33.8420  -33.4660 C   0  0  0  0  0  0  0  0  0  0  0  0
   12.3580  -32.2040  -30.9560 F   0  0  0  0  0  0  0  0  0  0  0  0
    3.0290  -31.8210  -32.0960 C   0  0  0  0  0  0  0  0  0  0  0  0
   10.6860  -37.5900  -34.3520 C   0  0  0  0  0  0  0  0  0  0  0  0
    9.3370  -35.7860  -34.3640 C   0  0  2  0  0  0  0  0  0  0  0  0
  2  7  1  1
  2 21  1  0
  3 13  1  0
  3  2  1  0
  4  3  2  0
  6 16  2  0
  8 26  1  6
  8  1  1  0
  9 13  2  0
 10 15  2  0
 21 11  1  6
 12 20  2  0
 12 10  1  0
 14 25  1  0
 15  9  1  0
 15 14  1  0
 16 20  1  0
 17  4  1  0
 17 19  1  6
 18 19  2  0
 19  7  1  0
 21 24  1  0
 21  5  1  0
 22 16  1  0
 27 22  1  1
 23 20  1  0
 23  4  1  0
 23  9  1  0
 26  1  1  0
 27  8  1  0
 27 17  1  0
M  END
$$$$

     RDKit          3D

 16 17  0  0  0  0  0  0  0  0999 V2000
    3.7080  -33.0170  -34.7630 C   0  0  0  0  0  0  0  0  0  0  0  0
    5.4360  -32.6370  -32.8940 C   0  0  0  0  0  0  0  0  0  0  0  0
    5.2860  -31.9790  -31.7680 C   0  0  0  0  0  0  0  0  0  0  0  0
    7.6650  -32.9970  -32.4560 C   0  0  0  0  0  0  0  0  0  0  0  0
    7.8480  -34.0890  -32.8600 C   0  0  1  0  0  0  0  0  0  0  0  0
    7.7770  -34.0780  -33.7770 C   0  0  0  0  0  0  0  0  0  0  0  0
   10.2620  -34.8300  -33.5220 S   0  0  0  0  0  0  0  0  0  0  0  0
    7.1060  -34.9630  -34.1380 C   0  0  0  0  0  0  0  0  0  0  0  0
    6.4620  -33.1890  -33.1540 C   0  0  0  0  0  0  0  0  0  0  0  0
    5.0670  -33.9070  -34.5730 C   0  0  0  0  0  0  0  0  0  0  0  0
    9.1320  -34.2730  -33.2140 C   0  0  0  0  0  0  0  0  0  0  0  0
    3.5390  -35.9380  -36.5550 C   0  0  0  0  0  0  0  0  0  0  0  0
    5.6930  -35.0260  -35.0820 C   0  0  2  0  0  0  0  0  0  0  0  0
    5.4540  -33.2360  -33.7510 C   0  0  1  0  0  0  0  0  0  0  0  0
    7.1660  -35.2160  -35.1030 C   0  0  0  0  0  0  0  0  0  0  0  0
    4.9920  -35.2820  -36.4390 O   0  0  0  0  0  0  0  0  0  0  0  0
  2  3  1  0
  5 11  1  6
  5  4  1  0
  6  5  1  0
  7 11  3  0
  8  6  1  0
  9  2  2  0
  9  4  1  0
 10  1  1  0
 14 10  1  1
 12 16  1  0
 13 16  1  6
 13 10  1  0
 14  9  1  0
 14  2  1  0
 15 13  1  0
 15  8  1  0
M  END
$$$$

     RDKit          3D

 25 29  0  0  0  0  0  0  0  0999 V2000
    7.0290  -35.2000  -34.8920 C   0  0  1  0  0  0  0  0  0  0  0  0
    8.0590  -35.9290  -35.1800 C   0  0  0  0  0  0  0  0  0  0  0  0
    8.4830  -31.7790  -30.2410 O   0  0  0  0  0  0  0  0  0  0  0  0
   10.4360  -33.0260  -30.2880 C   0  0  2  0  0  0  0  0  0  0  0  0
    5.5450  -35.2970  -36.8410 C   0  0  0  0  0  0  0  0  0  0  0  0
    9.4060  -35.7050  -33.7760 N   0  0  0  0  0  0  0  0  0  0  0  0
    4.5510  -34.8640  -34.8320 C   0  0  0  0  0  0  0  0  0  0  0  0
    8.6500  -32.9770  -31.8460 C   0  0  0  0  0  0  0  0  0  0  0  0
   12.6920  -33.1210  -30.9620 C   0  0  0  0  0  0  0  0  0  0  0  0
   11.9140  -33.4690  -29.6050 C   0  0  0  0  0  0  0  0  0  0  0  0
   11.6140  -33.4200  -32.2920 C   0  0  0  0  0  0  0  0  0  0  0  0
    9.1850  -36.1030  -35.0510 C   0  0  0  0  0  0  0  0  0  0  0  0
    6.9380  -33.0990  -33.3360 C   0  0  0  0  0  0  0  0  0  0  0  0
    4.4100  -35.2310  -37.5600 N   0  0  0  0  0  0  0  0  0  0  0  0
    7.4980  -34.2860  -33.9920 C   0  0  0  0  0  0  0  0  0  0  0  0
    7.3870  -32.5810  -32.3850 C   0  0  0  0  0  0  0  0  0  0  0  0
    8.6370  -34.7050  -33.3000 C   0  0  0  0  0  0  0  0  0  0  0  0
    3.4010  -35.1710  -36.7520 C   0  0  0  0  0  0  0  0  0  0  0  0
   10.9290  -35.2670  -31.2330 O   0  0  0  0  0  0  0  0  0  0  0  0
    9.0270  -32.5950  -30.7050 C   0  0  0  0  0  0  0  0  0  0  0  0
    3.4250  -35.1460  -35.3710 N   0  0  0  0  0  0  0  0  0  0  0  0
    9.3560  -33.9230  -32.3960 C   0  0  0  0  0  0  0  0  0  0  0  0
   10.5220  -33.9740  -31.7420 C   0  0  1  0  0  0  0  0  0  0  0  0
    5.8160  -35.1070  -35.6070 C   0  0  0  0  0  0  0  0  0  0  0  0
    2.1330  -35.0440  -37.2770 N   0  0  0  0  0  0  0  0  0  0  0  0
  1 24  1  6
  1 15  1  0
  2 12  1  0
  2  1  1  0
  4 10  1  1
  5 24  2  0
  6 17  1  0
  8 20  1  0
  9 10  1  0
 11 23  1  0
 11  9  1  0
 12  6  1  0
 13 16  1  0
 14  5  1  0
 14 18  2  0
 15 13  2  0
 15 17  1  0
 16  8  2  0
 17 22  2  0
 18 21  1  0
 20  4  1  0
 20  3  2  0
 21  7  1  0
 22  8  1  0
 22 23  1  0
 23 19  1  1
 23  4  1  0
 24  7  1  0
 25 18  1  0
M  END
$$$$

     RDKit          3D

 17 18  0  0  0  0  0  0  0  0999 V2000
    7.2990  -31.5510  -31.5770 C   0  0  0  0  0  0  0  0  0  0  0  0
    9.2340  -33.0780  -32.0690 C   0  0  0  0  0  0  0  0  0  0  0  0
    8.9780  -34.9960  -33.5380 C   0  0  0  0  0  0  0  0  0  0  0  0
    6.6690  -34.9550  -34.8240 C   0  0  0  0  0  0  0  0  0  0  0  0
    6.2370  -35.5970  -37.0340 C   0  0  0  0  0  0  0  0  0  0  0  0
    7.8930  -32.6570  -32.2920 C   0  0  0  0  0  0  0  0  0  0  0  0
    5.2510  -34.7320  -37.0180 C   0  0  0  0  0  0  0  0  0  0  0  0
    6.7690  -35.9200  -35.7970 C   0  0  0  0  0  0  0  0  0  0  0  0
    8.7790  -36.8950  -34.5900 O   0  0  0  0  0  0  0  0  0  0  0  0
    4.4720  -34.4130  -38.1690 N   0  0  0  0  0  0  0  0  0  0  0  0
    5.4620  -34.2660  -34.8030 C   0  0  0  0  0  0  0  0  0  0  0  0
    9.7180  -34.2020  -32.6700 C   0  0  0  0  0  0  0  0  0  0  0  0
    7.6330  -34.5360  -33.8970 C   0  0  0  0  0  0  0  0  0  0  0  0
   10.5570  -36.4280  -33.7380 O   0  0  0  0  0  0  0  0  0  0  0  0
    4.7680  -34.2320  -35.8790 N   0  0  0  0  0  0  0  0  0  0  0  0
    9.4260  -36.0980  -33.9730 N   0  0  0  0  0  0  0  0  0  0  0  0
    7.1790  -33.3400  -33.2170 C   0  0  0  0  0  0  0  0  0  0  0  0
  3 12  2  0
  4 11  1  0
  4 13  1  0
  5  7  2  0
  5  8  1  0
  6  2  2  0
  6  1  1  0
  7 15  1  0
  8  4  2  0
  9 16  1  0
 10  7  1  0
 12  2  1  0
 13  3  1  0
 13 17  2  0
 15 11  2  0
 16 14  2  0
 16  3  1  0
 17  6  1  0
M  CHG  2   9  -1  16   1
M  END
$$$$

     RDKit          3D

 20 23  0  0  0  0  0  0  0  0999 V2000
    8.3780  -35.1690  -34.8780 C   0  0  0  0  0  0  0  0  0  0  0  0
    3.1680  -32.3590  -34.0580 O   0  0  0  0  0  0  0  0  0  0  0  0
    7.6060  -34.2900  -33.9500 N   0  0  0  0  0  0  0  0  0  0  0  0
   10.0800  -32.5140  -30.2560 C   0  0  0  0  0  0  0  0  0  0  0  0
    8.2130  -33.4350  -32.6540 C   0  0  0  0  0  0  0  0  0  0  0  0
    3.9670  -33.3320  -34.4140 C   0  0  0  0  0  0  0  0  0  0  0  0
    7.1670  -32.7020  -32.3480 C   0  0  0  0  0  0  0  0  0  0  0  0
    9.5900  -33.8480  -32.4660 C   0  0  1  0  0  0  0  0  0  0  0  0
    5.8670  -35.1130  -35.3940 C   0  0  0  0  0  0  0  0  0  0  0  0
    4.5110  -35.1720  -35.9040 C   0  0  0  0  0  0  0  0  0  0  0  0
   10.4850  -34.3730  -33.2620 O   0  0  0  0  0  0  0  0  0  0  0  0
   10.6310  -34.9290  -34.4220 C   0  0  0  0  0  0  0  0  0  0  0  0
   10.3550  -33.5850  -31.1970 C   0  0  0  0  0  0  0  0  0  0  0  0
    8.9080  -31.9260  -30.4090 C   0  0  0  0  0  0  0  0  0  0  0  0
    7.8010  -32.0360  -31.1040 C   0  0  0  0  0  0  0  0  0  0  0  0
    5.2390  -33.3170  -33.8880 C   0  0  0  0  0  0  0  0  0  0  0  0
    6.2630  -34.2250  -34.4520 C   0  0  1  0  0  0  0  0  0  0  0  0
    3.5880  -34.2260  -35.3370 C   0  0  0  0  0  0  0  0  0  0  0  0
    9.4780  -35.8730  -34.6390 C   0  0  0  0  0  0  0  0  0  0  0  0
    5.7880  -32.4630  -32.9770 C   0  0  0  0  0  0  0  0  0  0  0  0
  1 19  1  0
  1  3  1  0
  3  5  1  0
  5  8  1  0
  5  7  2  0
  6  2  1  0
  6 16  1  0
  7 15  1  0
  8 13  1  6
 10  9  2  0
 10 18  1  0
 11  8  1  0
 12 11  1  0
 13  4  1  0
 14  4  1  0
 15 14  1  0
 16 20  2  0
 17  9  1  0
 17  3  1  1
 17 16  1  0
 18  6  2  0
 19 12  1  0
 20  7  1  0
M  END
$$$$

     RDKit          3D

 34 38  0  0  0  0  0  0  0  0999 V2000
    9.2360  -33.3510  -31.2130 N   0  0  0  0  0  0  0  0  0  0  0  0
    3.0270  -35.4280  -36.3850 C   0  0  0  0  0  0  0  0  0  0  0  0
    5.7160  -36.3420  -36.1510 O   0  0  0  0  0  0  0  0  0  0  0  0
    5.6660  -32.2770  -32.1730 C   0  0  0  0  0  0  0  0  0  0  0  0
   10.5390  -32.1140  -29.3620 C   0  0  0  0  0  0  0  0  0  0  0  0
    8.9170  -35.6700  -33.3990 C   0  0  0  0  0  0  0  0  0  0  0  0
    8.6440  -34.0500  -33.6900 C   0  0  1  0  0  0  0  0  0  0  0  0
   12.7040  -33.4970  -32.7180 C   0  0  0  0  0  0  0  0  0  0  0  0
   11.8460  -33.4130  -30.8340 C   0  0  1  0  0  0  0  0  0  0  0  0
   10.3660  -33.4660  -31.4990 C   0  0  2  0  0  0  0  0  0  0  0  0
    9.0700  -36.2170  -33.8210 C   0  0  0  0  0  0  0  0  0  0  0  0
    8.2010  -32.6930  -31.7450 C   0  0  0  0  0  0  0  0  0  0  0  0
    5.0090  -34.3820  -35.3730 C   0  0  2  0  0  0  0  0  0  0  0  0
    8.1470  -36.9900  -35.7130 C   0  0  0  0  0  0  0  0  0  0  0  0
   10.6270  -37.3700  -33.3110 O   0  0  0  0  0  0  0  0  0  0  0  0
    8.1150  -36.0510  -34.8050 C   0  0  0  0  0  0  0  0  0  0  0  0
   10.4380  -32.7400  -29.3360 C   0  0  0  0  0  0  0  0  0  0  0  0
   11.8490  -33.7190  -33.2580 C   0  0  0  0  0  0  0  0  0  0  0  0
    4.0000  -34.3070  -36.1080 C   0  0  0  0  0  0  0  0  0  0  0  0
    6.2930  -33.0990  -33.0300 C   0  0  0  0  0  0  0  0  0  0  0  0
    5.8500  -35.3210  -35.5040 C   0  0  0  0  0  0  0  0  0  0  0  0
    9.8770  -37.0530  -34.0900 C   0  0  0  0  0  0  0  0  0  0  0  0
    6.9930  -35.2550  -34.0930 C   0  0  0  0  0  0  0  0  0  0  0  0
    9.5430  -31.5020  -30.1140 O   0  0  0  0  0  0  0  0  0  0  0  0
    7.4850  -34.7540  -34.3590 C   0  0  1  0  0  0  0  0  0  0  0  0
   12.9930  -33.4540  -31.6690 C   0  0  0  0  0  0  0  0  0  0  0  0
    9.1490  -37.8250  -35.8310 C   0  0  0  0  0  0  0  0  0  0  0  0
    6.2830  -31.6060  -31.3220 C   0  0  0  0  0  0  0  0  0  0  0  0
    7.5560  -31.7180  -31.1720 N   0  0  0  0  0  0  0  0  0  0  0  0
    5.1670  -33.4130  -34.0110 C   0  0  0  0  0  0  0  0  0  0  0  0
   11.7150  -32.8720  -29.7090 C   0  0  0  0  0  0  0  0  0  0  0  0
    7.6220  -33.2840  -32.7200 C   0  0  0  0  0  0  0  0  0  0  0  0
   10.1140  -37.6760  -35.3820 C   0  0  0  0  0  0  0  0  0  0  0  0
   10.6170  -33.2110  -32.8500 C   0  0  0  0  0  0  0  0  0  0  0  0
  2 19  1  0
  3 21  2  0
  4 28  2  0
  5 17  1  0
  7  6  1  1
  7 32  1  0
  8 26  1  0
  9 31  1  6
 10  1  1  1
 10  9  1  0
 11  6  1  0
 12  1  1  0
 12 29  2  0
 13 19  1  1
 13 30  1  0
 14 16  1  0
 16 25  1  0
 16 11  2  0
 18 34  1  0
 18  8  1  0
 20 32  2  0
 20  4  1  0
 21 13  1  0
 21 23  1  0
 22 11  1  0
 22 15  2  0
 24  5  1  0
 25 23  1  1
 25  7  1  0
 26  9  1  0
 27 14  1  0
 27 33  1  0
 28 29  1  0
 30 20  1  0
 31 17  1  0
 32 12  1  0
 33 22  1  0
 34 10  1  0
M  END
$$$$

     RDKit          3D

 37 45  0  0  0  0  0  0  0  0999 V2000
    3.5480  -34.5310  -34.0880 O   0  0  0  0  0  0  0  0  0  0  0  0
    9.2550  -32.6630  -32.1080 C   0  0  1  0  0  0  0  0  0  0  0  0
   10.6870  -32.7080  -30.1160 C   0  0  2  0  0  0  0  0  0  0  0  0
    7.6100  -32.1190  -30.1650 C   0  0  0  0  0  0  0  0  0  0  0  0
    9.4710  -34.5270  -34.0210 C   0  0  1  0  0  0  0  0  0  0  0  0
    7.1090  -31.5100  -31.5520 C   0  0  0  0  0  0  0  0  0  0  0  0
    8.5240  -37.6220  -33.7080 C   0  0  0  0  0  0  0  0  0  0  0  0
   10.4340  -34.2590  -33.6970 C   0  0  2  0  0  0  0  0  0  0  0  0
    6.1190  -34.7960  -34.4460 N   0  0  0  0  0  0  0  0  0  0  0  0
    6.8150  -33.7140  -32.8630 O   0  0  0  0  0  0  0  0  0  0  0  0
   11.6220  -34.4650  -31.6220 C   0  0  0  0  0  0  0  0  0  0  0  0
    7.2650  -35.6670  -34.0190 O   0  0  0  0  0  0  0  0  0  0  0  0
    8.7290  -31.8960  -29.4800 C   0  0  0  0  0  0  0  0  0  0  0  0
    9.7700  -32.7820  -31.1430 C   0  0  1  0  0  0  0  0  0  0  0  0
    5.7210  -34.7770  -36.1920 C   0  0  0  0  0  0  0  0  0  0  0  0
    7.2360  -34.5170  -35.9130 O   0  0  0  0  0  0  0  0  0  0  0  0
    8.1230  -35.3390  -35.5890 C   0  0  2  0  0  0  0  0  0  0  0  0
   11.9120  -34.3740  -33.3890 C   0  0  0  0  0  0  0  0  0  0  0  0
    9.9450  -35.3040  -34.3010 C   0  0  1  0  0  0  0  0  0  0  0  0
   12.0220  -34.6710  -30.9150 C   0  0  2  0  0  0  0  0  0  0  0  0
    9.5080  -33.6830  -33.0260 C   0  0  1  0  0  0  0  0  0  0  0  0
    6.2380  -31.6390  -32.0380 O   0  0  0  0  0  0  0  0  0  0  0  0
    8.1310  -31.9780  -31.3110 N   0  0  0  0  0  0  0  0  0  0  0  0
   11.9280  -34.4230  -32.9520 S   0  0  0  0  0  0  0  0  0  0  0  0
   11.7020  -35.6510  -30.4280 C   0  0  0  0  0  0  0  0  0  0  0  0
    8.7860  -36.0410  -33.4070 C   0  0  2  0  0  0  0  0  0  0  0  0
   11.6770  -34.2070  -33.9320 C   0  0  0  0  0  0  0  0  0  0  0  0
    5.7680  -33.4330  -31.9930 C   0  0  1  0  0  0  0  0  0  0  0  0
    8.4700  -34.6510  -32.9110 C   0  0  0  0  0  0  0  0  0  0  0  0
    5.7370  -35.7320  -35.3780 C   0  0  0  0  0  0  0  0  0  0  0  0
   11.7220  -33.4090  -30.1870 C   0  0  0  0  0  0  0  0  0  0  0  0
    4.6070  -33.1450  -32.9240 C   0  0  0  0  0  0  0  0  0  0  0  0
    5.0610  -34.1920  -33.6220 C   0  0  0  0  0  0  0  0  0  0  0  0
    9.6600  -32.3650  -30.2290 C   0  0  2  0  0  0  0  0  0  0  0  0
    8.1990  -36.3850  -34.5440 C   0  0  2  0  0  0  0  0  0  0  0  0
   10.2960  -36.1010  -33.1300 C   0  0  0  0  0  0  0  0  0  0  0  0
    9.3860  -34.3730  -35.4980 C   0  0  0  0  0  0  0  0  0  0  0  0
  1 33  2  0
  2 23  1  1
  2 14  1  0
  4 13  1  0
  5  8  1  0
  5 21  1  0
  6 23  1  0
 26  7  1  1
  8 21  1  0
  9 12  1  0
  9 33  1  0
 28 10  1  6
 20 11  1  6
 14 34  1  0
 14  3  1  6
 15 16  1  0
 15 30  1  0
 17 16  1  1
 17 37  1  0
 17 35  1  0
 18 24  3  0
 19  5  1  0
 19  8  1  0
 19 36  1  1
 20 25  1  0
 20 31  1  0
 21 29  1  1
 21  2  1  0
 22 28  1  0
 22  6  1  0
 23  4  1  0
 26 36  1  0
 26 29  1  0
  8 27  1  6
 27 18  1  0
 30  9  1  0
  3 31  1  1
 32 28  1  0
 33 32  1  0
 34  3  1  0
 34 13  1  1
 35 12  1  0
 35  7  1  6
 35 26  1  0
  5 37  1  6
M  END
$$$$

     RDKit          3D

 17 19  0  0  0  0  0  0  0  0999 V2000
    8.4960  -32.5020  -32.0460 N   0  0  0  0  0  0  0  0  0  0  0  0
    6.3770  -32.6450  -32.4790 C   0  0  0  0  0  0  0  0  0  0  0  0
    9.4320  -35.3570  -34.2090 C   0  0  0  0  0  0  0  0  0  0  0  0
    6.5660  -33.5430  -33.4610 C   0  0  1  0  0  0  0  0  0  0  0  0
    4.1530  -33.5870  -33.9000 N   0  0  0  0  0  0  0  0  0  0  0  0
    5.5160  -34.7710  -35.0570 O   0  0  0  0  0  0  0  0  0  0  0  0
    5.4370  -33.9250  -34.1940 C   0  0  0  0  0  0  0  0  0  0  0  0
    5.1250  -32.3040  -32.2580 C   0  0  0  0  0  0  0  0  0  0  0  0
    8.2810  -34.9700  -34.3910 C   0  0  0  0  0  0  0  0  0  0  0  0
   10.1730  -33.8800  -32.8240 C   0  0  0  0  0  0  0  0  0  0  0  0
    8.9100  -33.3560  -32.8660 C   0  0  0  0  0  0  0  0  0  0  0  0
    7.8620  -33.8680  -33.6200 C   0  0  0  0  0  0  0  0  0  0  0  0
   10.5340  -34.6820  -33.6100 C   0  0  0  0  0  0  0  0  0  0  0  0
   10.0050  -36.3480  -34.4170 F   0  0  0  0  0  0  0  0  0  0  0  0
    7.1150  -31.4350  -30.9310 O   0  0  0  0  0  0  0  0  0  0  0  0
    7.3280  -32.1970  -31.8180 C   0  0  0  0  0  0  0  0  0  0  0  0
    4.0240  -32.6840  -32.8750 C   0  0  0  0  0  0  0  0  0  0  0  0
  1 16  1  0
  2  8  2  0
  2 16  1  0
  3 14  1  0
  3 13  1  0
  4  7  1  6
  4  2  1  0
  5 17  2  0
  6  7  2  0
  7  5  1  0
  9  3  1  0
  9 12  2  0
 11 10  2  0
 11  1  1  0
 12  4  1  0
 12 11  1  0
 13 10  1  0
 16 15  2  0
 17  8  1  0
M  END
$$$$

     RDKit          3D

 15 18  0  0  0  0  0  0  0  0999 V2000
    8.3010  -32.6960  -32.0300 C   0  0  0  0  0  0  0  0  0  0  0  0
   10.4020  -34.8440  -33.5130 C   0  0  0  0  0  0  0  0  0  0  0  0
    8.8920  -33.1160  -31.9900 C   0  0  1  0  0  0  0  0  0  0  0  0
    6.8540  -34.5290  -34.1430 C   0  0  2  0  0  0  0  0  0  0  0  0
   10.0550  -35.4050  -33.6720 C   0  0  0  0  0  0  0  0  0  0  0  0
    5.3620  -34.1440  -34.0390 C   0  0  0  0  0  0  0  0  0  0  0  0
    7.8140  -33.9130  -33.4640 C   0  0  1  0  0  0  0  0  0  0  0  0
    8.8440  -33.8620  -32.6880 C   0  0  0  0  0  0  0  0  0  0  0  0
    8.6580  -34.5510  -33.3090 C   0  0  2  0  0  0  0  0  0  0  0  0
    5.1450  -33.1040  -33.6830 C   0  0  0  0  0  0  0  0  0  0  0  0
    7.1940  -35.5050  -35.2130 C   0  0  0  0  0  0  0  0  0  0  0  0
    6.1420  -32.4930  -32.8420 C   0  0  0  0  0  0  0  0  0  0  0  0
   10.6420  -33.9040  -32.5070 C   0  0  0  0  0  0  0  0  0  0  0  0
   10.3480  -33.4370  -32.2870 C   0  0  0  0  0  0  0  0  0  0  0  0
    7.4200  -32.8360  -32.6790 C   0  0  0  0  0  0  0  0  0  0  0  0
  1  3  1  0
  2 13  1  0
  3 14  1  6
  4 11  1  6
  4  6  1  0
  4  7  1  0
  5  2  1  0
  9  5  1  6
  6 10  1  0
  7  9  1  0
  7  8  1  1
  7 15  1  0
  8  3  1  0
  9  8  1  0
 10 12  1  0
 12 15  1  0
 13 14  1  0
 15  1  2  0
M  END
$$$$

     RDKit          3D

 34 40  0  0  0  0  0  0  0  0999 V2000
    3.0440  -32.0390  -31.4670 C   0  0  0  0  0  0  0  0  0  0  0  0
    9.6140  -37.7640  -33.6500 C   0  0  0  0  0  0  0  0  0  0  0  0
    2.6140  -32.6750  -34.0370 C   0  0  0  0  0  0  0  0  0  0  0  0
    9.5680  -35.7010  -32.8130 O   0  0  0  0  0  0  0  0  0  0  0  0
    4.2890  -34.1180  -35.3680 C   0  0  0  0  0  0  0  0  0  0  0  0
    8.9030  -36.5190  -34.3120 O   0  0  0  0  0  0  0  0  0  0  0  0
   12.4080  -33.2260  -31.6760 C   0  0  0  0  0  0  0  0  0  0  0  0
    6.7960  -32.3540  -31.8290 C   0  0  0  0  0  0  0  0  0  0  0  0
    4.4820  -32.6380  -31.1750 C   0  0  2  0  0  0  0  0  0  0  0  0
   11.2720  -32.5030  -32.3260 C   0  0  0  0  0  0  0  0  0  0  0  0
    9.9270  -33.5030  -32.4440 C   0  0  2  0  0  0  0  0  0  0  0  0
    7.3360  -34.3640  -34.2690 O   0  0  0  0  0  0  0  0  0  0  0  0
    5.5640  -31.7050  -31.4230 C   0  0  0  0  0  0  0  0  0  0  0  0
    2.9900  -33.2490  -35.3370 C   0  0  0  0  0  0  0  0  0  0  0  0
   11.1870  -34.8220  -34.0530 O   0  0  0  0  0  0  0  0  0  0  0  0
    5.1010  -36.1650  -36.4630 C   0  0  0  0  0  0  0  0  0  0  0  0
    5.4560  -33.9970  -34.6120 C   0  0  0  0  0  0  0  0  0  0  0  0
   10.2090  -32.5340  -30.1420 C   0  0  0  0  0  0  0  0  0  0  0  0
    6.3310  -35.8100  -35.7280 C   0  0  0  0  0  0  0  0  0  0  0  0
    5.6930  -30.5500  -31.5760 O   0  0  0  0  0  0  0  0  0  0  0  0
    4.0500  -35.2540  -36.2720 C   0  0  0  0  0  0  0  0  0  0  0  0
   11.7810  -32.3810  -29.4860 C   0  0  0  0  0  0  0  0  0  0  0  0
    7.8570  -34.0190  -33.1820 C   0  0  1  0  0  0  0  0  0  0  0  0
   11.3080  -34.5560  -30.3350 C   0  0  0  0  0  0  0  0  0  0  0  0
    8.3430  -34.5790  -34.3110 C   0  0  1  0  0  0  0  0  0  0  0  0
   10.1330  -37.1350  -32.4460 C   0  0  0  0  0  0  0  0  0  0  0  0
    8.6070  -32.8840  -32.6530 C   0  0  1  0  0  0  0  0  0  0  0  0
    3.5960  -32.8940  -32.4590 C   0  0  1  0  0  0  0  0  0  0  0  0
   11.6230  -33.1940  -30.4120 C   0  0  2  0  0  0  0  0  0  0  0  0
    8.1310  -32.1720  -31.7300 O   0  0  0  0  0  0  0  0  0  0  0  0
   10.7060  -33.6030  -31.1790 C   0  0  1  0  0  0  0  0  0  0  0  0
    9.3720  -35.7850  -34.1670 C   0  0  1  0  0  0  0  0  0  0  0  0
    6.2940  -34.8820  -34.9350 C   0  0  0  0  0  0  0  0  0  0  0  0
   10.1390  -34.8010  -33.2660 C   0  0  1  0  0  0  0  0  0  0  0  0
  1  9  1  0
  2 26  1  0
  5 14  1  0
  5 17  2  0
  6  2  1  0
  7 29  1  0
  8 30  1  0
  8 13  1  0
  9 13  1  6
 10  7  1  0
 11 10  1  6
 11 31  1  0
 14  3  2  3
 16 21  2  0
 16 19  1  0
 19 33  2  0
 20 13  2  0
 21  5  1  0
 23 12  1  6
 23 27  1  0
 25 12  1  6
 25 32  1  0
 25 23  1  0
 27 11  1  0
 27 30  1  1
 28  3  1  0
 28  1  1  1
 28  9  1  0
 29 24  1  0
 29 22  1  1
 31 29  1  0
 31 24  1  0
 31 18  1  1
 32  6  1  1
 32 34  1  0
 32  4  1  0
 33 17  1  0
 34 15  1  6
 34  4  1  0
 34 11  1  0
M  END
$$$$

     RDKit          3D

 22 25  0  0  0  0  0  0  0  0999 V2000
    4.6840  -34.9790  -35.8970 C   0  0  0  0  0  0  0  0  0  0  0  0
    9.5200  -33.1590  -31.6930 C   0  0  0  0  0  0  0  0  0  0  0  0
    8.3850  -34.4430  -33.4510 C   0  0  0  0  0  0  0  0  0  0  0  0
    8.4980  -33.3260  -32.4980 C   0  0  0  0  0  0  0  0  0  0  0  0
   10.3240  -34.0350  -30.9200 C   0  0  0  0  0  0  0  0  0  0  0  0
    6.3110  -32.6830  -32.9340 C   0  0  0  0  0  0  0  0  0  0  0  0
   12.0880  -33.8010  -31.9560 C   0  0  0  0  0  0  0  0  0  0  0  0
    7.9350  -34.6090  -34.3020 C   0  0  0  0  0  0  0  0  0  0  0  0
   10.5630  -34.3380  -31.8550 C   0  0  0  0  0  0  0  0  0  0  0  0
    5.6870  -33.5910  -33.7810 C   0  0  0  0  0  0  0  0  0  0  0  0
    6.5120  -34.4380  -34.5690 C   0  0  0  0  0  0  0  0  0  0  0  0
    5.9720  -35.0960  -35.6610 C   0  0  0  0  0  0  0  0  0  0  0  0
   12.2780  -33.0730  -31.9160 C   0  0  0  0  0  0  0  0  0  0  0  0
   12.5520  -33.3900  -31.9470 S   0  0  0  0  0  0  0  0  0  0  0  0
   10.2610  -35.2430  -32.2880 C   0  0  1  0  0  0  0  0  0  0  0  0
   10.2220  -35.7170  -33.5800 C   0  0  2  0  0  0  0  0  0  0  0  0
   10.8690  -34.5970  -33.2300 C   0  0  0  0  0  0  0  0  0  0  0  0
    8.7960  -35.7430  -33.6790 C   0  0  0  0  0  0  0  0  0  0  0  0
    3.8240  -34.2510  -35.0800 N   0  0  0  0  0  0  0  0  0  0  0  0
   10.5230  -33.4690  -32.1060 C   0  0  2  0  0  0  0  0  0  0  0  0
    7.5110  -32.4930  -32.4540 C   0  0  0  0  0  0  0  0  0  0  0  0
    4.3030  -33.5420  -34.0760 C   0  0  0  0  0  0  0  0  0  0  0  0
  1 12  2  0
  1 19  1  0
  3  4  1  0
  4 21  1  0
  4  2  1  0
  6 21  2  0
  7 14  1  0
  8  3  2  0
  9  5  2  0
 10  6  1  0
 11  8  1  0
 11 10  2  0
 12 11  1  0
 14 13  1  0
 15 17  1  1
 15  9  1  0
 16 18  1  6
 16 17  1  0
 16 15  1  0
 18  3  1  0
 19 22  2  0
 20 13  1  1
 20  9  1  0
 20  2  1  0
 22 10  1  0
M  END
$$$$

     RDKit          3D

 17 20  0  0  0  0  0  0  0  0999 V2000
   10.3770  -33.8250  -32.2160 C   0  0  0  0  0  0  0  0  0  0  0  0
    7.9900  -33.4580  -32.7070 C   0  0  0  0  0  0  0  0  0  0  0  0
   11.2850  -33.3550  -31.1650 C   0  0  0  0  0  0  0  0  0  0  0  0
    9.2440  -32.5080  -30.7630 C   0  0  0  0  0  0  0  0  0  0  0  0
    6.8600  -32.7010  -32.7040 C   0  0  0  0  0  0  0  0  0  0  0  0
    9.0250  -33.2470  -31.9200 C   0  0  0  0  0  0  0  0  0  0  0  0
    5.8810  -34.0960  -34.3850 C   0  0  0  0  0  0  0  0  0  0  0  0
   11.2820  -34.7170  -33.1220 F   0  0  0  0  0  0  0  0  0  0  0  0
    4.9290  -34.5490  -35.1310 O   0  0  0  0  0  0  0  0  0  0  0  0
    7.0370  -34.8590  -34.3520 C   0  0  0  0  0  0  0  0  0  0  0  0
    7.4030  -35.9390  -35.0730 N   0  0  0  0  0  0  0  0  0  0  0  0
   10.0010  -35.2090  -32.8880 C   0  0  2  0  0  0  0  0  0  0  0  0
    5.7820  -32.9830  -33.5670 C   0  0  0  0  0  0  0  0  0  0  0  0
   10.5980  -32.6640  -30.3650 C   0  0  0  0  0  0  0  0  0  0  0  0
    8.6460  -36.2480  -34.6910 C   0  0  0  0  0  0  0  0  0  0  0  0
    9.0050  -35.3220  -33.7130 C   0  0  0  0  0  0  0  0  0  0  0  0
    7.9790  -34.4560  -33.5800 C   0  0  0  0  0  0  0  0  0  0  0  0
  1  6  2  0
  1  3  1  0
  2  5  1  0
  2  6  1  0
  3 14  1  0
  4 14  2  0
  6  4  1  0
  7 10  1  0
  7 13  2  0
  9  7  1  0
 10 17  1  0
 11 15  1  0
 11 10  2  0
 12  8  1  6
 12  1  1  0
 13  5  1  0
 15 16  2  0
 16 17  1  0
 16 12  1  0
 17  2  2  0
M  END
$$$$

     RDKit          3D

 22 25  0  0  0  0  0  0  0  0999 V2000
   10.4090  -35.9200  -34.3390 C   0  0  0  0  0  0  0  0  0  0  0  0
    5.6870  -34.3270  -35.3600 C   0  0  1  0  0  0  0  0  0  0  0  0
   12.2750  -34.1310  -33.7870 O   0  0  0  0  0  0  0  0  0  0  0  0
    9.3130  -32.9700  -32.0280 C   0  0  0  0  0  0  0  0  0  0  0  0
    4.7540  -33.7970  -34.8750 C   0  0  0  0  0  0  0  0  0  0  0  0
    6.5020  -33.5400  -33.5400 C   0  0  2  0  0  0  0  0  0  0  0  0
    8.7150  -34.7180  -33.2870 C   0  0  0  0  0  0  0  0  0  0  0  0
   10.2170  -35.2650  -33.2400 C   0  0  2  0  0  0  0  0  0  0  0  0
    4.6040  -33.0480  -32.8130 O   0  0  0  0  0  0  0  0  0  0  0  0
    5.2430  -33.3550  -33.5550 C   0  0  0  0  0  0  0  0  0  0  0  0
   11.4160  -33.3760  -32.2940 C   0  0  1  0  0  0  0  0  0  0  0  0
   11.2900  -34.1730  -33.2230 C   0  0  0  0  0  0  0  0  0  0  0  0
    8.5020  -33.7160  -32.6710 C   0  0  0  0  0  0  0  0  0  0  0  0
   11.1890  -33.6630  -31.0020 C   0  0  1  0  0  0  0  0  0  0  0  0
    7.2920  -32.9700  -32.7680 C   0  0  0  0  0  0  0  0  0  0  0  0
    9.1060  -32.5720  -31.1120 C   0  0  2  0  0  0  0  0  0  0  0  0
    7.0320  -32.1550  -31.7910 C   0  0  0  0  0  0  0  0  0  0  0  0
    5.9300  -34.9480  -36.6510 C   0  0  0  0  0  0  0  0  0  0  0  0
   12.3450  -33.4650  -31.2580 O   0  0  0  0  0  0  0  0  0  0  0  0
    6.8960  -34.3040  -34.5710 C   0  0  0  0  0  0  0  0  0  0  0  0
    8.0400  -31.8470  -30.8600 C   0  0  0  0  0  0  0  0  0  0  0  0
   10.2540  -32.8350  -30.1090 C   0  0  0  0  0  0  0  0  0  0  0  0
  2 18  1  6
  2  5  1  0
  2 20  1  0
  3 12  2  0
  5 10  1  0
  6 15  1  6
  7  8  1  0
  7 13  2  3
  8  1  1  6
  8 12  1  0
 10  6  1  0
 10  9  2  0
 11 12  1  0
 11 19  1  1
 11 14  1  0
 13  4  1  0
 14 22  1  1
 15 13  1  0
 15 17  2  0
 16  4  1  0
 16 21  1  6
 16 22  1  0
 17 21  1  0
 19 14  1  0
 20  6  1  0
M  END
$$$$

     RDKit          3D

 24 26  0  0  0  0  0  0  0  0999 V2000
   12.8810  -33.1890  -29.2750 C   0  0  0  0  0  0  0  0  0  0  0  0
    6.7590  -34.1250  -33.8780 N   0  0  0  0  0  0  0  0  0  0  0  0
    2.6440  -33.1800  -35.2330 C   0  0  0  0  0  0  0  0  0  0  0  0
    9.0090  -37.0030  -34.2530 C   0  0  0  0  0  0  0  0  0  0  0  0
    4.1620  -33.9270  -36.7730 C   0  0  0  0  0  0  0  0  0  0  0  0
   12.3060  -33.4200  -30.2930 C   0  0  0  0  0  0  0  0  0  0  0  0
    3.2310  -32.9520  -34.0930 C   0  0  0  0  0  0  0  0  0  0  0  0
   10.2810  -32.5420  -29.8770 C   0  0  0  0  0  0  0  0  0  0  0  0
   11.0050  -31.8380  -28.6300 C   0  0  0  0  0  0  0  0  0  0  0  0
    7.6750  -34.9680  -33.8150 C   0  0  0  0  0  0  0  0  0  0  0  0
    8.9170  -34.8750  -33.1260 N   0  0  0  0  0  0  0  0  0  0  0  0
    9.8320  -36.0940  -33.2630 C   0  0  0  0  0  0  0  0  0  0  0  0
   10.9270  -33.2340  -30.6350 C   0  0  0  0  0  0  0  0  0  0  0  0
   10.1510  -33.9900  -31.5710 C   0  0  2  0  0  0  0  0  0  0  0  0
    8.9260  -32.5790  -32.2430 O   0  0  0  0  0  0  0  0  0  0  0  0
   11.0990  -34.5590  -32.1980 O   0  0  0  0  0  0  0  0  0  0  0  0
    7.7650  -36.1990  -34.6110 C   0  0  0  0  0  0  0  0  0  0  0  0
    5.4960  -33.7060  -34.5280 C   0  0  0  0  0  0  0  0  0  0  0  0
    6.0670  -34.8490  -36.3820 F   0  0  0  0  0  0  0  0  0  0  0  0
    4.5830  -33.1470  -33.6330 C   0  0  0  0  0  0  0  0  0  0  0  0
    5.2150  -34.0490  -35.7570 C   0  0  0  0  0  0  0  0  0  0  0  0
    9.2820  -33.7880  -32.4250 C   0  0  0  0  0  0  0  0  0  0  0  0
   12.2570  -32.3030  -28.4140 C   0  0  0  0  0  0  0  0  0  0  0  0
    2.8740  -33.4560  -36.4740 C   0  0  0  0  0  0  0  0  0  0  0  0
  1 23  2  0
  2 10  1  0
  3  7  1  0
  4 12  2  0
  5 24  1  0
  5 21  2  0
  6  1  1  0
  7 20  1  0
  8  9  2  0
  9 23  1  0
 10 11  1  0
 11 22  1  0
 12 11  1  0
 13  6  2  0
 13  8  1  0
 14 16  1  6
 14 13  1  0
 17  4  1  0
 17 10  2  0
 18  2  1  0
 18 20  2  0
 19 21  1  0
 21 18  1  0
 22 15  2  0
 22 14  1  0
 24  3  2  0
M  END
$$$$

     RDKit          3D

 24 31  0  0  0  0  0  0  0  0999 V2000
    5.6180  -32.4370  -32.6580 C   0  0  0  0  0  0  0  0  0  0  0  0
   10.1690  -33.6480  -30.8190 C   0  0  0  0  0  0  0  0  0  0  0  0
   10.8880  -34.9940  -32.0960 C   0  0  1  0  0  0  0  0  0  0  0  0
    9.2610  -33.7890  -32.0850 C   0  0  2  0  0  0  0  0  0  0  0  0
   11.5880  -34.1770  -32.8580 C   0  0  1  0  0  0  0  0  0  0  0  0
    6.2390  -31.4830  -31.8140 C   0  0  0  0  0  0  0  0  0  0  0  0
    9.8460  -35.1170  -33.7910 C   0  0  1  0  0  0  0  0  0  0  0  0
    7.4300  -35.0760  -34.4070 C   0  0  2  0  0  0  0  0  0  0  0  0
   11.2270  -35.1770  -33.6860 C   0  0  2  0  0  0  0  0  0  0  0  0
    5.1880  -34.2430  -34.9250 C   0  0  0  0  0  0  0  0  0  0  0  0
   11.1710  -33.1440  -33.3720 F   0  0  0  0  0  0  0  0  0  0  0  0
    6.7880  -33.2320  -33.1520 C   0  0  0  0  0  0  0  0  0  0  0  0
    5.5910  -35.2600  -35.9180 C   0  0  1  0  0  0  0  0  0  0  0  0
    2.6100  -35.2710  -36.4570 O   0  0  0  0  0  0  0  0  0  0  0  0
    8.5330  -35.1070  -33.5020 N   0  0  0  0  0  0  0  0  0  0  0  0
    7.3110  -35.6520  -35.3270 O   0  0  0  0  0  0  0  0  0  0  0  0
    3.6270  -35.7980  -36.8280 C   0  0  0  0  0  0  0  0  0  0  0  0
    4.7860  -36.5080  -36.0580 C   0  0  0  0  0  0  0  0  0  0  0  0
   11.9390  -33.9600  -31.8310 C   0  0  1  0  0  0  0  0  0  0  0  0
    8.0260  -33.1310  -32.3700 C   0  0  1  0  0  0  0  0  0  0  0  0
    9.4250  -34.4930  -32.5810 C   0  0  1  0  0  0  0  0  0  0  0  0
    7.7120  -31.6380  -31.2890 S   0  0  0  0  0  0  0  0  0  0  0  0
   11.2190  -33.8140  -30.7040 C   0  0  0  0  0  0  0  0  0  0  0  0
    6.4030  -34.0510  -34.0940 C   0  0  0  0  0  0  0  0  0  0  0  0
  1  6  1  0
  2 23  2  0
  3 19  1  1
  4  2  1  1
  5  3  1  0
  5 19  1  0
  6 22  1  0
  9  7  1  6
  7 15  1  1
  7 21  1  0
  8 24  1  0
  8 15  1  0
  9  5  1  0
  9  3  1  0
 10 24  1  0
  5 11  1  6
 12  1  1  0
 12 20  1  0
 13 16  1  0
 13 10  1  0
 21 15  1  1
  8 16  1  6
 17 14  2  0
 17 18  1  0
 13 18  1  1
 19 23  1  1
 20  4  1  0
 20 22  1  1
 21  3  1  0
 21  4  1  0
 24 12  2  0
M  END
$$$$
