
     RDKit          3D

 29 36  0  0  0  0  0  0  0  0999 V2000
    8.3030  -33.9330  -33.1050 C   0  0  1  0  0  0  0  0  0  0  0  0
    2.6840  -32.5660  -34.7380 C   0  0  0  0  0  0  0  0  0  0  0  0
   11.9120  -33.8080  -31.1290 C   0  0  0  0  0  0  0  0  0  0  0  0
    3.9960  -34.9170  -35.4630 C   0  0  0  0  0  0  0  0  0  0  0  0
   10.1370  -33.6720  -31.1260 C   0  0  2  0  0  0  0  0  0  0  0  0
    4.6710  -34.0580  -34.3870 C   0  0  2  0  0  0  0  0  0  0  0  0
    6.2330  -36.1070  -35.8150 C   0  0  0  0  0  0  0  0  0  0  0  0
    9.7590  -34.4830  -33.0920 C   0  0  2  0  0  0  0  0  0  0  0  0
   10.0900  -35.8840  -33.5240 C   0  0  0  0  0  0  0  0  0  0  0  0
    8.1550  -35.6630  -34.4120 C   0  0  0  0  0  0  0  0  0  0  0  0
   11.9950  -32.6680  -29.0100 C   0  0  0  0  0  0  0  0  0  0  0  0
    9.1070  -32.8530  -31.2730 C   0  0  1  0  0  0  0  0  0  0  0  0
   11.1310  -34.0150  -31.9940 N   0  0  0  0  0  0  0  0  0  0  0  0
    9.2270  -33.9260  -31.7200 C   0  0  1  0  0  0  0  0  0  0  0  0
   10.6080  -32.4450  -29.1600 C   0  0  0  0  0  0  0  0  0  0  0  0
   10.2740  -34.7180  -32.5050 C   0  0  1  0  0  0  0  0  0  0  0  0
    2.7460  -35.0510  -35.6290 O   0  0  0  0  0  0  0  0  0  0  0  0
    8.6480  -36.7720  -34.8150 F   0  0  0  0  0  0  0  0  0  0  0  0
    4.7650  -35.8790  -36.2470 C   0  0  0  0  0  0  0  0  0  0  0  0
   12.6370  -33.4250  -30.0210 C   0  0  0  0  0  0  0  0  0  0  0  0
    4.0080  -32.8660  -33.9660 C   0  0  2  0  0  0  0  0  0  0  0  0
    3.8390  -32.2910  -32.4990 C   0  0  0  0  0  0  0  0  0  0  0  0
    8.5110  -34.9590  -33.6860 C   0  0  2  0  0  0  0  0  0  0  0  0
    6.1310  -34.1770  -34.2650 C   0  0  0  0  0  0  0  0  0  0  0  0
   12.5610  -32.1570  -27.9710 F   0  0  0  0  0  0  0  0  0  0  0  0
    9.9800  -32.7450  -30.3450 C   0  0  1  0  0  0  0  0  0  0  0  0
    6.7970  -35.3540  -34.8520 C   0  0  0  0  0  0  0  0  0  0  0  0
    3.4060  -32.9610  -31.4800 C   0  0  0  0  0  0  0  0  0  0  0  0
    6.8110  -33.4400  -33.3520 N   0  0  0  0  0  0  0  0  0  0  0  0
  1 29  1  6
  1  8  1  0
  1 14  1  0
 21  2  1  1
  3 20  1  0
  6  4  1  6
  5 26  1  0
  6 24  1  0
  6 21  1  0
  7 27  1  0
  8 16  1  0
  8  9  1  1
 23 10  1  6
 11 25  1  0
 12  5  1  0
 12 26  1  1
 13  3  1  0
  5 13  1  6
 14 12  1  0
 14  5  1  0
 15 11  2  0
 16 13  1  6
 14 16  1  1
 17  4  2  0
 18 10  1  0
 19  7  2  0
 19  4  1  0
 20 11  1  0
 21 22  1  0
 22 28  2  0
 23  1  1  0
 23  8  1  0
 24 29  2  0
 26 15  1  1
 27 10  2  0
 27 24  1  0
M  END
$$$$

     RDKit          3D

 19 20  0  0  0  0  0  0  0  0999 V2000
   10.5080  -33.8660  -31.2910 C   0  0  2  0  0  0  0  0  0  0  0  0
    8.8640  -33.6850  -32.5880 N   0  0  0  0  0  0  0  0  0  0  0  0
    4.3640  -34.5530  -35.9320 O   0  0  0  0  0  0  0  0  0  0  0  0
    6.7720  -32.5900  -32.3340 O   0  0  0  0  0  0  0  0  0  0  0  0
    3.2910  -32.4870  -33.2960 C   0  0  0  0  0  0  0  0  0  0  0  0
    3.3360  -33.1550  -34.5770 C   0  0  0  0  0  0  0  0  0  0  0  0
   11.7420  -35.2380  -33.2720 F   0  0  0  0  0  0  0  0  0  0  0  0
    9.7810  -32.9180  -30.4470 O   0  0  0  0  0  0  0  0  0  0  0  0
    5.6160  -32.9200  -32.8670 C   0  0  1  0  0  0  0  0  0  0  0  0
   10.4540  -34.7100  -34.6190 F   0  0  0  0  0  0  0  0  0  0  0  0
   10.5420  -34.9130  -33.4100 C   0  0  1  0  0  0  0  0  0  0  0  0
    9.9250  -35.9980  -33.1870 F   0  0  0  0  0  0  0  0  0  0  0  0
   11.7670  -34.2200  -30.6800 C   0  0  0  0  0  0  0  0  0  0  0  0
   10.1570  -33.7990  -32.7110 C   0  0  2  0  0  0  0  0  0  0  0  0
    4.3520  -32.4590  -32.5090 C   0  0  0  0  0  0  0  0  0  0  0  0
    7.7040  -33.5970  -32.9270 C   0  0  0  0  0  0  0  0  0  0  0  0
    7.0940  -34.6470  -34.0970 S   0  0  0  0  0  0  0  0  0  0  0  0
    4.5350  -33.8820  -34.8870 C   0  0  0  0  0  0  0  0  0  0  0  0
    5.6310  -33.7340  -34.0400 C   0  0  1  0  0  0  0  0  0  0  0  0
  1 13  1  6
  1  8  1  0
  3 18  2  0
  5 15  2  0
  6  5  1  0
  9 15  1  0
  9  4  1  6
 11 10  1  6
 11  7  1  0
 11 12  1  0
 11 14  1  0
 14  2  1  1
 14  1  1  0
 16  2  1  0
 16  4  1  0
 19 17  1  1
 17 16  1  0
 18  6  1  0
 19 18  1  0
 19  9  1  0
M  END
$$$$

     RDKit          3D

 21 22  0  0  0  0  0  0  0  0999 V2000
    9.2260  -32.9100  -32.1190 O   0  0  0  0  0  0  0  0  0  0  0  0
    6.0170  -33.1320  -32.7590 C   0  0  0  0  0  0  0  0  0  0  0  0
   11.3040  -33.4260  -30.9370 C   0  0  0  0  0  0  0  0  0  0  0  0
    4.6860  -34.1940  -35.8450 N   0  0  0  0  0  0  0  0  0  0  0  0
    8.0420  -36.6640  -34.4860 C   0  0  0  0  0  0  0  0  0  0  0  0
   10.3970  -34.2440  -31.0860 C   0  0  0  0  0  0  0  0  0  0  0  0
    9.6580  -34.1100  -32.0370 C   0  0  0  0  0  0  0  0  0  0  0  0
    6.8160  -34.6620  -34.3390 C   0  0  0  0  0  0  0  0  0  0  0  0
    5.6830  -34.6670  -36.4420 C   0  0  0  0  0  0  0  0  0  0  0  0
    9.0210  -35.7750  -34.0700 C   0  0  1  0  0  0  0  0  0  0  0  0
    6.5730  -35.0820  -35.5750 N   0  0  0  0  0  0  0  0  0  0  0  0
    4.8950  -32.4110  -32.1880 C   0  0  0  0  0  0  0  0  0  0  0  0
    5.8690  -33.8120  -33.8640 C   0  0  0  0  0  0  0  0  0  0  0  0
    3.5710  -33.0560  -34.0760 C   0  0  0  0  0  0  0  0  0  0  0  0
   11.8560  -33.1880  -31.4160 O   0  0  0  0  0  0  0  0  0  0  0  0
   11.5940  -33.3520  -29.5460 C   0  0  0  0  0  0  0  0  0  0  0  0
    9.8490  -35.2100  -35.1850 C   0  0  0  0  0  0  0  0  0  0  0  0
    3.7120  -32.3830  -32.8890 C   0  0  0  0  0  0  0  0  0  0  0  0
    7.8560  -34.8110  -33.5110 O   0  0  0  0  0  0  0  0  0  0  0  0
    9.5560  -35.1860  -32.7810 C   0  0  0  0  0  0  0  0  0  0  0  0
    4.7490  -33.6950  -34.6400 C   0  0  0  0  0  0  0  0  0  0  0  0
  1  7  2  0
  2 12  2  0
  3 16  1  0
  4 21  1  0
 10  5  1  1
  6  3  1  0
  7  6  1  0
  8 13  1  0
  8 19  1  0
  9  4  1  0
  9 11  1  0
 10 19  1  0
 10 20  1  0
 11  8  2  0
 13  2  1  0
 14 18  2  0
 15  3  2  0
 17 10  1  0
 18 12  1  0
 20  7  1  0
 21 14  1  0
 21 13  2  0
M  END
$$$$

     RDKit          3D

 22 24  0  0  0  0  0  0  0  0999 V2000
   11.4840  -33.0070  -29.2930 C   0  0  0  0  0  0  0  0  0  0  0  0
   10.5800  -35.7310  -33.1130 C   0  0  0  0  0  0  0  0  0  0  0  0
    8.3800  -34.8560  -33.6360 C   0  0  0  0  0  0  0  0  0  0  0  0
    9.6130  -34.8010  -32.9790 C   0  0  0  0  0  0  0  0  0  0  0  0
   10.5890  -33.2150  -31.4850 C   0  0  2  0  0  0  0  0  0  0  0  0
   12.0770  -33.4480  -31.4520 C   0  0  0  0  0  0  0  0  0  0  0  0
    8.1230  -36.0270  -34.4000 C   0  0  0  0  0  0  0  0  0  0  0  0
    6.1330  -33.7310  -33.8770 C   0  0  0  0  0  0  0  0  0  0  0  0
    5.9140  -34.5540  -34.7420 O   0  0  0  0  0  0  0  0  0  0  0  0
   10.3090  -36.8010  -33.9650 C   0  0  0  0  0  0  0  0  0  0  0  0
    9.0800  -36.9920  -34.5040 C   0  0  0  0  0  0  0  0  0  0  0  0
    6.7840  -31.9310  -31.7980 C   0  0  0  0  0  0  0  0  0  0  0  0
    5.2780  -32.8560  -33.3660 N   0  0  0  0  0  0  0  0  0  0  0  0
    4.6000  -31.2180  -31.9370 O   0  0  0  0  0  0  0  0  0  0  0  0
   12.6240  -33.1640  -30.3240 N   0  0  0  0  0  0  0  0  0  0  0  0
    7.4850  -33.7680  -33.2570 C   0  0  0  0  0  0  0  0  0  0  0  0
   10.2050  -33.3330  -30.0070 C   0  0  0  0  0  0  0  0  0  0  0  0
    3.9240  -32.9260  -34.0130 C   0  0  0  0  0  0  0  0  0  0  0  0
   12.6960  -33.2980  -32.5990 O   0  0  0  0  0  0  0  0  0  0  0  0
    9.7670  -33.8160  -32.2420 O   0  0  0  0  0  0  0  0  0  0  0  0
    7.7240  -32.8580  -32.3300 C   0  0  0  0  0  0  0  0  0  0  0  0
    5.4840  -31.9580  -32.3450 C   0  0  0  0  0  0  0  0  0  0  0  0
  2  4  2  0
  3 16  1  0
  3  4  1  0
  4 20  1  0
  5 20  1  6
  5  6  1  0
  5 17  1  0
  6 15  1  0
  7  3  2  0
  8 13  1  0
  8 16  1  0
  9  8  2  0
 10  2  1  0
 11  7  1  0
 11 10  2  0
 13 22  1  0
 15  1  1  0
 16 21  2  0
 17  1  1  0
 18 13  1  0
 19  6  2  0
 21 12  1  0
 22 14  2  0
 22 12  1  0
M  END
$$$$

     RDKit          3D

 24 27  0  0  0  0  0  0  0  0999 V2000
    6.8400  -32.9840  -33.2400 C   0  0  0  0  0  0  0  0  0  0  0  0
    9.8600  -35.3620  -34.3010 C   0  0  0  0  0  0  0  0  0  0  0  0
   10.5930  -33.2740  -31.4480 C   0  0  0  0  0  0  0  0  0  0  0  0
    9.5780  -32.1650  -30.1640 O   0  0  0  0  0  0  0  0  0  0  0  0
    9.4660  -32.9360  -31.2240 C   0  0  1  0  0  0  0  0  0  0  0  0
   10.7710  -33.1860  -32.3190 C   0  0  0  0  0  0  0  0  0  0  0  0
    7.7100  -34.2330  -33.6950 C   0  0  0  0  0  0  0  0  0  0  0  0
   12.5730  -34.2180  -33.4080 C   0  0  0  0  0  0  0  0  0  0  0  0
    7.3790  -31.0350  -30.6890 O   0  0  0  0  0  0  0  0  0  0  0  0
   11.3790  -36.1120  -34.7370 C   0  0  0  0  0  0  0  0  0  0  0  0
    5.2860  -31.8080  -31.2760 O   0  0  0  0  0  0  0  0  0  0  0  0
    6.0130  -35.2290  -34.9090 C   0  0  0  0  0  0  0  0  0  0  0  0
    8.9590  -33.9040  -33.2900 C   0  0  0  0  0  0  0  0  0  0  0  0
    6.6370  -31.7430  -31.2380 C   0  0  0  0  0  0  0  0  0  0  0  0
    8.5130  -33.1030  -32.1830 C   0  0  0  0  0  0  0  0  0  0  0  0
    5.8560  -32.5780  -33.9320 O   0  0  0  0  0  0  0  0  0  0  0  0
    9.4760  -35.5380  -34.4010 C   0  0  0  0  0  0  0  0  0  0  0  0
    9.8500  -34.3870  -33.3260 C   0  0  2  0  0  0  0  0  0  0  0  0
   10.8640  -34.0060  -33.0990 C   0  0  2  0  0  0  0  0  0  0  0  0
    7.1630  -32.7600  -32.0200 C   0  0  2  0  0  0  0  0  0  0  0  0
    7.3250  -34.8170  -34.8660 C   0  0  0  0  0  0  0  0  0  0  0  0
    4.7370  -34.3890  -35.0170 C   0  0  0  0  0  0  0  0  0  0  0  0
    4.4720  -33.6930  -33.7700 C   0  0  0  0  0  0  0  0  0  0  0  0
   11.9790  -34.9330  -33.7560 C   0  0  0  0  0  0  0  0  0  0  0  0
  1 20  1  0
  3  5  1  0
  5  4  1  6
  6  3  1  0
  7 13  1  0
  7  1  2  0
 10  2  1  0
 10 24  1  0
 11 14  2  0
 12 21  1  0
 13 15  2  0
 14  9  1  0
 15 20  1  0
 15  5  1  0
 16 23  1  0
 16  1  1  0
 17  2  2  0
 18  2  1  6
 18 13  1  0
 18 19  1  0
 19  6  1  1
 20 14  1  6
 21  7  1  0
 22 12  1  0
 22 23  1  0
 24  8  2  0
 24 19  1  0
M  END
$$$$

     RDKit          3D

 19 21  0  0  0  0  0  0  0  0999 V2000
    9.3970  -34.5010  -33.2730 C   0  0  0  0  0  0  0  0  0  0  0  0
   10.0250  -33.8160  -30.5060 C   0  0  0  0  0  0  0  0  0  0  0  0
    8.2150  -33.5780  -33.1960 C   0  0  0  0  0  0  0  0  0  0  0  0
    7.0010  -33.9620  -33.7540 C   0  0  0  0  0  0  0  0  0  0  0  0
    7.9570  -32.1700  -32.7120 C   0  0  0  0  0  0  0  0  0  0  0  0
   12.2750  -33.4730  -31.0270 C   0  0  0  0  0  0  0  0  0  0  0  0
    2.7230  -32.9790  -33.6030 N   0  0  0  0  0  0  0  0  0  0  0  0
   10.9000  -34.2920  -32.8430 C   0  0  0  0  0  0  0  0  0  0  0  0
    5.9860  -33.1430  -33.4930 N   0  0  0  0  0  0  0  0  0  0  0  0
    8.0160  -35.9780  -34.5920 C   0  0  0  0  0  0  0  0  0  0  0  0
   11.0600  -33.8350  -31.4410 C   0  0  0  0  0  0  0  0  0  0  0  0
   12.5380  -33.0630  -29.7640 C   0  0  0  0  0  0  0  0  0  0  0  0
    6.9390  -35.1680  -34.5160 C   0  0  0  0  0  0  0  0  0  0  0  0
    6.4800  -32.1330  -32.7850 N   0  0  0  0  0  0  0  0  0  0  0  0
    3.8060  -32.5190  -33.7640 C   0  0  0  0  0  0  0  0  0  0  0  0
   10.2800  -33.3580  -29.2340 C   0  0  0  0  0  0  0  0  0  0  0  0
   11.5390  -33.0380  -28.8500 C   0  0  0  0  0  0  0  0  0  0  0  0
    4.7850  -33.4410  -33.5660 C   0  0  0  0  0  0  0  0  0  0  0  0
    9.2550  -35.6870  -33.9470 C   0  0  0  0  0  0  0  0  0  0  0  0
  1  3  2  0
  1  8  1  0
  2 16  2  0
  3  5  1  0
  4  9  1  0
  4  3  1  0
  6 12  1  0
  8 11  1  0
  9 14  1  0
 10 13  1  0
 10 19  2  0
 11  6  2  0
 11  2  1  0
 12 17  2  0
 13  4  2  0
 14  5  1  0
 15  7  1  0
 15 18  1  0
 16 17  1  0
 18  9  1  0
 19  1  1  0
M  END
$$$$

     RDKit          3D

 22 24  0  0  0  0  0  0  0  0999 V2000
    9.9730  -34.8020  -32.7930 C   0  0  0  0  0  0  0  0  0  0  0  0
    7.8040  -34.8800  -34.2420 C   0  0  0  0  0  0  0  0  0  0  0  0
    9.5920  -33.7200  -31.8630 N   0  0  0  0  0  0  0  0  0  0  0  0
    8.4020  -32.0020  -30.9730 C   0  0  0  0  0  0  0  0  0  0  0  0
   10.7770  -33.5040  -31.1860 C   0  0  0  0  0  0  0  0  0  0  0  0
    5.0020  -32.4340  -32.9320 O   0  0  0  0  0  0  0  0  0  0  0  0
    5.7280  -35.0970  -35.2300 C   0  0  0  0  0  0  0  0  0  0  0  0
    9.3580  -36.3730  -34.4020 C   0  0  0  0  0  0  0  0  0  0  0  0
   10.7450  -33.6350  -29.7710 C   0  0  0  0  0  0  0  0  0  0  0  0
    9.1650  -35.0700  -33.8600 C   0  0  0  0  0  0  0  0  0  0  0  0
    8.4090  -32.9520  -31.9450 C   0  0  0  0  0  0  0  0  0  0  0  0
    7.2770  -33.0930  -32.6690 C   0  0  0  0  0  0  0  0  0  0  0  0
   10.5980  -37.0370  -34.1080 O   0  0  0  0  0  0  0  0  0  0  0  0
   11.8380  -32.7310  -29.0870 C   0  0  0  0  0  0  0  0  0  0  0  0
    6.2890  -31.2750  -31.4610 C   0  0  0  0  0  0  0  0  0  0  0  0
    5.6790  -34.0120  -34.4600 C   0  0  0  0  0  0  0  0  0  0  0  0
   11.8240  -33.4520  -31.8920 O   0  0  0  0  0  0  0  0  0  0  0  0
    7.4800  -31.1860  -30.8050 C   0  0  0  0  0  0  0  0  0  0  0  0
    7.0960  -35.6700  -35.2050 C   0  0  0  0  0  0  0  0  0  0  0  0
    6.2030  -32.2870  -32.3830 C   0  0  0  0  0  0  0  0  0  0  0  0
    6.9580  -33.9670  -33.7150 C   0  0  0  0  0  0  0  0  0  0  0  0
   11.4680  -31.4040  -28.9280 O   0  0  0  0  0  0  0  0  0  0  0  0
  1  3  1  0
  2 10  1  0
  2 21  1  0
  3  5  1  0
  4 18  1  0
  5  9  1  0
  7 19  1  0
  7 16  2  0
  8 13  1  0
  8 10  1  0
  9 14  1  0
 10  1  2  0
 11  3  1  0
 11  4  2  0
 12 20  1  0
 12 11  1  0
 14 22  1  0
 15 18  2  0
 16 21  1  0
 17  5  2  0
 19  2  2  0
 20  6  1  0
 20 15  1  0
 21 12  2  0
M  END
$$$$

     RDKit          3D

 32 34  0  0  0  0  0  0  0  0999 V2000
    7.6170  -35.8330  -37.0570 C   0  0  0  0  0  0  0  0  0  0  0  0
    6.4770  -33.1000  -33.1280 C   0  0  0  0  0  0  0  0  0  0  0  0
   10.8670  -36.5620  -34.6730 C   0  0  0  0  0  0  0  0  0  0  0  0
    7.4200  -35.7830  -35.6410 C   0  0  0  0  0  0  0  0  0  0  0  0
    1.7440  -30.2850  -30.7550 C   0  0  0  0  0  0  0  0  0  0  0  0
    3.2170  -31.8350  -31.1380 C   0  0  0  0  0  0  0  0  0  0  0  0
   10.7620  -35.2350  -31.7280 C   0  0  0  0  0  0  0  0  0  0  0  0
    7.7620  -36.9900  -35.2360 C   0  0  0  0  0  0  0  0  0  0  0  0
    7.6420  -32.3250  -32.6290 C   0  0  0  0  0  0  0  0  0  0  0  0
    2.0240  -31.3110  -31.3100 N   0  0  0  0  0  0  0  0  0  0  0  0
   10.7160  -33.3440  -33.3050 C   0  0  0  0  0  0  0  0  0  0  0  0
    0.7400  -31.0210  -31.5100 C   0  0  0  0  0  0  0  0  0  0  0  0
    4.1480  -34.1430  -34.3880 C   0  0  0  0  0  0  0  0  0  0  0  0
    8.3690  -34.1420  -33.4600 C   0  0  2  0  0  0  0  0  0  0  0  0
    3.6780  -31.8820  -30.0400 O   0  0  0  0  0  0  0  0  0  0  0  0
    8.9940  -34.6910  -33.1190 C   0  0  0  0  0  0  0  0  0  0  0  0
    7.9790  -33.9240  -34.5180 O   0  0  0  0  0  0  0  0  0  0  0  0
    3.2930  -33.0720  -33.2510 C   0  0  0  0  0  0  0  0  0  0  0  0
    2.3530  -32.1890  -34.0400 O   0  0  0  0  0  0  0  0  0  0  0  0
    9.9800  -34.6120  -34.8120 O   0  0  0  0  0  0  0  0  0  0  0  0
    9.9410  -35.5680  -35.0880 O   0  0  0  0  0  0  0  0  0  0  0  0
    5.2240  -32.2310  -31.9670 C   0  0  0  0  0  0  0  0  0  0  0  0
    5.7770  -33.9750  -34.0100 C   0  0  0  0  0  0  0  0  0  0  0  0
    6.5310  -35.5730  -37.3820 C   0  0  0  0  0  0  0  0  0  0  0  0
    6.5550  -34.9040  -34.8510 C   0  0  2  0  0  0  0  0  0  0  0  0
    5.1220  -35.5720  -35.7730 C   0  0  0  0  0  0  0  0  0  0  0  0
   10.8080  -35.8640  -33.1880 O   0  0  0  0  0  0  0  0  0  0  0  0
    8.7590  -33.5730  -32.2580 C   0  0  0  0  0  0  0  0  0  0  0  0
    6.3480  -31.5860  -31.2880 O   0  0  0  0  0  0  0  0  0  0  0  0
    4.0030  -32.5140  -32.2420 C   0  0  0  0  0  0  0  0  0  0  0  0
   10.7050  -34.2260  -32.6110 C   0  0  0  0  0  0  0  0  0  0  0  0
   10.3050  -33.8040  -34.0510 C   0  0  2  0  0  0  0  0  0  0  0  0
  1  4  1  0
  2  9  1  0
  2 22  2  0
  3 27  1  0
  4  8  2  0
  4 25  1  0
  6 15  2  0
 10  6  1  0
 10  5  1  0
 11 31  1  0
 12 10  1  0
 12  5  1  0
 13 23  2  0
 13 18  1  0
 14 16  1  0
 14 28  1  6
 17 14  1  0
 18 30  2  0
 19 18  1  0
 20 32  1  0
 21 20  1  0
 21  3  1  0
 22 29  1  0
 23  2  1  0
 24  1  1  0
 25 26  1  6
 25 17  1  0
 25 23  1  0
 27  7  1  0
 30 22  1  0
 30  6  1  0
 31  7  1  0
 32 11  1  0
 32 16  1  1
M  END
$$$$

     RDKit          3D

 28 32  0  0  0  0  0  0  0  0999 V2000
   11.6280  -34.4770  -33.5800 O   0  0  0  0  0  0  0  0  0  0  0  0
    4.0090  -34.3890  -38.0250 C   0  0  0  0  0  0  0  0  0  0  0  0
    2.9600  -35.0080  -38.5000 O   0  0  0  0  0  0  0  0  0  0  0  0
    7.3840  -31.3060  -30.8860 C   0  0  0  0  0  0  0  0  0  0  0  0
    4.6250  -33.2370  -33.8220 C   0  0  0  0  0  0  0  0  0  0  0  0
    9.9270  -33.7780  -30.5790 O   0  0  0  0  0  0  0  0  0  0  0  0
   11.5950  -33.9590  -32.3790 C   0  0  0  0  0  0  0  0  0  0  0  0
    9.5190  -34.2190  -32.8770 N   0  0  0  0  0  0  0  0  0  0  0  0
   11.7950  -31.5440  -29.0150 C   0  0  0  0  0  0  0  0  0  0  0  0
   11.7460  -32.6050  -28.1290 C   0  0  0  0  0  0  0  0  0  0  0  0
   11.9510  -32.9840  -29.5150 C   0  0  1  0  0  0  0  0  0  0  0  0
   10.3780  -33.8560  -31.8150 C   0  0  1  0  0  0  0  0  0  0  0  0
    6.5740  -34.4750  -34.5490 C   0  0  0  0  0  0  0  0  0  0  0  0
    5.2100  -34.3220  -38.2490 O   0  0  0  0  0  0  0  0  0  0  0  0
    8.3100  -33.8930  -33.2660 C   0  0  0  0  0  0  0  0  0  0  0  0
    4.8190  -31.4170  -31.6350 C   0  0  0  0  0  0  0  0  0  0  0  0
    6.1610  -33.4880  -33.6770 C   0  0  2  0  0  0  0  0  0  0  0  0
   10.8350  -33.9870  -29.6890 C   0  0  0  0  0  0  0  0  0  0  0  0
    5.4080  -32.3820  -31.5000 O   0  0  0  0  0  0  0  0  0  0  0  0
    6.7920  -32.2260  -31.9750 C   0  0  2  0  0  0  0  0  0  0  0  0
    4.2180  -34.8790  -35.6580 C   0  0  0  0  0  0  0  0  0  0  0  0
   10.4020  -34.6790  -33.7440 N   0  0  0  0  0  0  0  0  0  0  0  0
    8.1240  -31.9140  -31.2280 C   0  0  0  0  0  0  0  0  0  0  0  0
    3.1450  -34.4880  -36.8440 C   0  0  1  0  0  0  0  0  0  0  0  0
    7.3040  -33.2430  -32.9350 C   0  0  0  0  0  0  0  0  0  0  0  0
    7.8060  -34.4970  -34.3690 N   0  0  0  0  0  0  0  0  0  0  0  0
    4.0990  -33.7780  -34.7340 C   0  0  0  0  0  0  0  0  0  0  0  0
    5.8960  -35.1460  -35.4950 C   0  0  0  0  0  0  0  0  0  0  0  0
  1  7  1  0
  2 24  1  0
  3  2  1  0
  3 24  1  0
  6 18  1  0
  7 12  1  0
  8 12  1  0
  9 10  1  0
 11  9  1  0
 11 10  1  0
 12  6  1  1
 13 26  2  0
 13 17  1  0
 14  2  2  0
 15 25  2  0
 15  8  1  0
 16 19  1  0
 17  5  1  1
 17 25  1  0
 11 18  1  6
 20 19  1  0
 20  4  1  1
 21 28  2  0
 21 27  1  0
 22  1  1  0
 22  8  1  0
 23  4  1  0
 24 21  1  1
 25 20  1  0
 26 15  1  0
 27  5  2  0
 28 13  1  0
M  END
$$$$

     RDKit          3D

 15 16  0  0  0  0  0  0  0  0999 V2000
   10.8090  -33.5280  -30.2310 C   0  0  0  0  0  0  0  0  0  0  0  0
    5.9520  -32.7290  -32.9800 C   0  0  0  0  0  0  0  0  0  0  0  0
    4.7430  -31.9720  -32.5130 F   0  0  0  0  0  0  0  0  0  0  0  0
    8.0250  -33.2620  -32.6490 C   0  0  0  0  0  0  0  0  0  0  0  0
    8.9080  -34.9280  -33.7670 C   0  0  0  0  0  0  0  0  0  0  0  0
    9.9400  -34.3000  -32.9090 C   0  0  0  0  0  0  0  0  0  0  0  0
    7.8280  -34.2170  -33.5690 C   0  0  0  0  0  0  0  0  0  0  0  0
    6.9590  -32.4940  -32.3190 C   0  0  0  0  0  0  0  0  0  0  0  0
    6.6730  -34.3520  -34.2370 C   0  0  0  0  0  0  0  0  0  0  0  0
    9.2040  -33.3550  -32.1470 N   0  0  0  0  0  0  0  0  0  0  0  0
    9.2220  -36.2780  -34.5490 C   0  0  0  0  0  0  0  0  0  0  0  0
    6.5670  -35.3040  -35.1180 O   0  0  0  0  0  0  0  0  0  0  0  0
    5.6220  -33.5710  -33.8890 C   0  0  0  0  0  0  0  0  0  0  0  0
   11.0930  -34.0970  -33.2600 C   0  0  0  0  0  0  0  0  0  0  0  0
    9.7120  -32.8320  -31.1390 N   0  0  0  0  0  0  0  0  0  0  0  0
  2  3  1  0
  2  8  2  0
  4  8  1  0
  4 10  1  0
  5  7  1  0
  5  6  2  0
  6 10  1  0
  7  4  2  0
  9 13  2  0
  9  7  1  0
 10 15  1  0
 11  5  1  0
 12  9  1  0
 13  2  1  0
 14  6  1  0
 15  1  1  0
M  END
$$$$

     RDKit          3D

 21 23  0  0  0  0  0  0  0  0999 V2000
    4.8830  -32.9620  -33.7340 C   0  0  0  0  0  0  0  0  0  0  0  0
    5.5960  -31.8690  -30.6880 C   0  0  0  0  0  0  0  0  0  0  0  0
    7.1770  -33.6630  -33.2700 C   0  0  0  0  0  0  0  0  0  0  0  0
    4.7130  -33.8610  -34.7720 C   0  0  0  0  0  0  0  0  0  0  0  0
    6.0290  -31.5700  -32.1240 C   0  0  0  0  0  0  0  0  0  0  0  0
    5.9800  -32.7730  -33.0400 C   0  0  0  0  0  0  0  0  0  0  0  0
   11.9100  -33.0620  -30.5750 C   0  0  0  0  0  0  0  0  0  0  0  0
   12.2120  -33.5220  -31.8100 C   0  0  0  0  0  0  0  0  0  0  0  0
    8.2270  -33.1680  -31.3850 C   0  0  0  0  0  0  0  0  0  0  0  0
   10.5850  -33.5460  -32.9830 C   0  0  2  0  0  0  0  0  0  0  0  0
    8.5450  -34.0350  -32.7740 C   0  0  0  0  0  0  0  0  0  0  0  0
    6.9730  -34.7520  -34.3350 C   0  0  0  0  0  0  0  0  0  0  0  0
   10.1970  -33.0330  -30.6990 C   0  0  0  0  0  0  0  0  0  0  0  0
    8.3770  -33.2060  -32.4050 C   0  0  2  0  0  0  0  0  0  0  0  0
   11.1010  -33.6090  -32.5650 C   0  0  0  0  0  0  0  0  0  0  0  0
    9.4210  -33.4270  -31.5790 C   0  0  1  0  0  0  0  0  0  0  0  0
    9.8150  -33.3560  -32.2590 C   0  0  0  0  0  0  0  0  0  0  0  0
   11.0290  -33.9700  -33.4250 C   0  0  0  0  0  0  0  0  0  0  0  0
   11.3880  -32.7920  -29.8030 C   0  0  0  0  0  0  0  0  0  0  0  0
    5.7030  -34.6450  -34.8770 C   0  0  0  0  0  0  0  0  0  0  0  0
   13.3830  -33.4390  -32.1240 O   0  0  0  0  0  0  0  0  0  0  0  0
  1  6  2  0
  3  6  1  0
  3 11  1  0
  4  1  1  0
  5  2  1  0
  6  5  1  0
  7 19  1  0
  8  7  1  0
 10 18  1  1
 10 15  1  0
 10 17  1  0
 12  3  2  0
 13 19  1  0
 14 11  1  1
 14 16  1  0
 14  9  1  0
 15  8  1  0
 16 17  1  6
 16  9  1  0
 16 13  1  0
 20  4  2  0
 20 12  1  0
 21  8  2  0
M  END
$$$$

     RDKit          3D

 20 22  0  0  0  0  0  0  0  0999 V2000
   12.5550  -33.5160  -31.4340 C   0  0  0  0  0  0  0  0  0  0  0  0
    7.0140  -34.8920  -34.4230 C   0  0  0  0  0  0  0  0  0  0  0  0
    7.1930  -33.0290  -32.8820 C   0  0  0  0  0  0  0  0  0  0  0  0
    4.5230  -32.7300  -33.0740 C   0  0  0  0  0  0  0  0  0  0  0  0
    8.0600  -36.3530  -35.4630 O   0  0  0  0  0  0  0  0  0  0  0  0
    8.2050  -33.7090  -32.8290 C   0  0  0  0  0  0  0  0  0  0  0  0
    9.9080  -36.7770  -33.5510 O   0  0  0  0  0  0  0  0  0  0  0  0
    5.1520  -33.6350  -33.9250 C   0  0  0  0  0  0  0  0  0  0  0  0
    9.8170  -33.5310  -31.6580 C   0  0  0  0  0  0  0  0  0  0  0  0
    7.9250  -35.3820  -34.6970 C   0  0  0  0  0  0  0  0  0  0  0  0
    6.5620  -33.8360  -33.7260 C   0  0  0  0  0  0  0  0  0  0  0  0
    9.9760  -35.6620  -33.1040 C   0  0  0  0  0  0  0  0  0  0  0  0
   11.1650  -34.0280  -32.0540 C   0  0  2  0  0  0  0  0  0  0  0  0
    4.7610  -34.4190  -34.9210 C   0  0  0  0  0  0  0  0  0  0  0  0
    5.6930  -35.1610  -35.3070 C   0  0  0  0  0  0  0  0  0  0  0  0
    5.2050  -31.7570  -32.3170 C   0  0  0  0  0  0  0  0  0  0  0  0
   11.3740  -35.3700  -32.6950 O   0  0  0  0  0  0  0  0  0  0  0  0
    7.1600  -31.5930  -30.8070 C   0  0  0  0  0  0  0  0  0  0  0  0
    6.5790  -32.0110  -31.9930 C   0  0  1  0  0  0  0  0  0  0  0  0
    9.1410  -34.4530  -32.7690 C   0  0  0  0  0  0  0  0  0  0  0  0
  3  6  2  0
  3 19  1  0
  4 16  1  0
  5 10  2  0
  6 20  2  0
  7 12  2  0
  8 11  1  0
  8  4  1  0
 10  2  1  0
 11  2  1  0
 11  3  1  0
 12 20  1  0
 12 17  1  0
 13  9  1  0
 13  1  1  1
 14  8  2  0
 15 14  1  0
 15  2  2  0
 16 19  1  0
 17 13  1  0
 19 18  1  1
 20  9  1  0
M  END
$$$$

     RDKit          3D

 25 29  0  0  0  0  0  0  0  0999 V2000
   10.2720  -34.4580  -32.8670 C   0  0  0  0  0  0  0  0  0  0  0  0
    8.1870  -31.5900  -30.6250 C   0  0  0  0  0  0  0  0  0  0  0  0
    7.1470  -35.9120  -35.6790 C   0  0  0  0  0  0  0  0  0  0  0  0
   10.2190  -32.6750  -29.7600 C   0  0  0  0  0  0  0  0  0  0  0  0
    3.8610  -35.6570  -37.2390 C   0  0  2  0  0  0  0  0  0  0  0  0
    4.9480  -33.9550  -34.1950 O   0  0  0  0  0  0  0  0  0  0  0  0
    7.3690  -33.0080  -32.7780 C   0  0  0  0  0  0  0  0  0  0  0  0
   10.9510  -34.3330  -31.6570 C   0  0  0  0  0  0  0  0  0  0  0  0
    9.0100  -34.1930  -32.8540 N   0  0  0  0  0  0  0  0  0  0  0  0
    8.1490  -34.7100  -33.8570 C   0  0  0  0  0  0  0  0  0  0  0  0
    6.1390  -35.1180  -35.8380 C   0  0  2  0  0  0  0  0  0  0  0  0
   11.7710  -33.6190  -31.2210 C   0  0  0  0  0  0  0  0  0  0  0  0
    6.0430  -34.4250  -34.5750 C   0  0  0  0  0  0  0  0  0  0  0  0
    5.0190  -34.8830  -36.5230 C   0  0  1  0  0  0  0  0  0  0  0  0
    5.7390  -34.2860  -37.6620 O   0  0  0  0  0  0  0  0  0  0  0  0
    9.1130  -32.5950  -31.0640 C   0  0  0  0  0  0  0  0  0  0  0  0
    6.6010  -32.2740  -32.2610 C   0  0  0  0  0  0  0  0  0  0  0  0
    7.1000  -33.9940  -33.7250 C   0  0  0  0  0  0  0  0  0  0  0  0
    8.2950  -35.5170  -34.8120 C   0  0  0  0  0  0  0  0  0  0  0  0
   11.3630  -33.2470  -29.6480 C   0  0  0  0  0  0  0  0  0  0  0  0
    6.9890  -31.4530  -31.2380 C   0  0  0  0  0  0  0  0  0  0  0  0
    8.6060  -33.1870  -32.1520 C   0  0  0  0  0  0  0  0  0  0  0  0
    3.7580  -35.1730  -38.6210 O   0  0  0  0  0  0  0  0  0  0  0  0
    3.7240  -34.3090  -36.4100 C   0  0  0  0  0  0  0  0  0  0  0  0
   11.8610  -33.1900  -28.9700 C   0  0  0  0  0  0  0  0  0  0  0  0
  1  9  1  0
  1  8  1  0
  3 19  1  0
  4 20  1  0
  5 23  1  6
  5 14  1  0
  5 24  1  0
  7 17  1  0
  7 22  2  0
  8 12  1  0
  9 22  1  0
 10 18  2  0
 10  9  1  0
 11  3  1  1
 11 13  1  0
 12 20  1  0
 13  6  2  0
 13 18  1  0
 14 15  1  6
 14 24  1  0
 14 11  1  0
 16  2  2  0
 16  4  1  0
 17 21  2  0
 18  7  1  0
 19 10  1  0
 20 25  2  0
 21  2  1  0
 22 16  1  0
M  END
$$$$

     RDKit          3D

 30 33  0  0  0  0  0  0  0  0999 V2000
    9.1820  -33.8600  -32.0840 C   0  0  0  0  0  0  0  0  0  0  0  0
    8.1000  -35.1720  -34.2980 C   0  0  0  0  0  0  0  0  0  0  0  0
    9.6830  -33.1770  -31.1320 C   0  0  0  0  0  0  0  0  0  0  0  0
    9.8080  -37.0270  -34.1520 C   0  0  0  0  0  0  0  0  0  0  0  0
    9.1900  -35.6670  -33.6070 C   0  0  0  0  0  0  0  0  0  0  0  0
    4.0750  -34.4160  -37.2270 C   0  0  0  0  0  0  0  0  0  0  0  0
    2.7790  -34.2240  -37.8220 C   0  0  0  0  0  0  0  0  0  0  0  0
    6.3060  -35.1190  -37.5040 C   0  0  0  0  0  0  0  0  0  0  0  0
    8.0390  -33.3800  -32.4800 C   0  0  0  0  0  0  0  0  0  0  0  0
    5.0570  -34.8300  -38.0920 N   0  0  0  0  0  0  0  0  0  0  0  0
    7.6660  -35.5290  -35.4450 C   0  0  0  0  0  0  0  0  0  0  0  0
   10.8910  -33.3780  -30.6170 C   0  0  0  0  0  0  0  0  0  0  0  0
    7.1780  -35.5760  -38.1270 O   0  0  0  0  0  0  0  0  0  0  0  0
   12.8690  -32.3040  -27.1630 C   0  0  0  0  0  0  0  0  0  0  0  0
    2.4340  -34.6740  -39.0320 N   0  0  0  0  0  0  0  0  0  0  0  0
    7.4330  -32.3620  -32.0190 C   0  0  0  0  0  0  0  0  0  0  0  0
    6.6090  -34.8870  -36.1780 C   0  0  0  0  0  0  0  0  0  0  0  0
    9.7600  -35.0560  -32.5950 C   0  0  0  0  0  0  0  0  0  0  0  0
    5.5350  -34.2710  -35.2180 C   0  0  0  0  0  0  0  0  0  0  0  0
    4.2240  -33.9890  -35.7510 C   0  0  0  0  0  0  0  0  0  0  0  0
    6.1710  -33.8130  -33.9840 C   0  0  0  0  0  0  0  0  0  0  0  0
    9.0300  -32.3710  -30.3870 O   0  0  0  0  0  0  0  0  0  0  0  0
    7.3720  -34.1110  -33.5890 C   0  0  0  0  0  0  0  0  0  0  0  0
   11.3020  -33.1250  -29.3320 C   0  0  0  0  0  0  0  0  0  0  0  0
    1.8240  -33.9560  -37.0860 O   0  0  0  0  0  0  0  0  0  0  0  0
   12.5670  -33.5630  -29.3190 C   0  0  0  0  0  0  0  0  0  0  0  0
   11.5550  -32.0580  -27.2100 C   0  0  0  0  0  0  0  0  0  0  0  0
   10.7900  -32.4230  -28.3160 C   0  0  0  0  0  0  0  0  0  0  0  0
   13.1420  -33.0940  -28.0710 C   0  0  0  0  0  0  0  0  0  0  0  0
   11.6490  -33.9440  -31.3760 O   0  0  0  0  0  0  0  0  0  0  0  0
  1  3  1  0
  2  5  2  0
  2 23  1  0
  3 12  1  0
  3 22  2  0
  4  5  1  0
  5 18  1  0
  6 20  1  0
  7  6  1  0
  7 25  2  0
  8 17  1  0
  9  1  1  0
  9 16  1  0
 10  8  1  0
 10  6  2  0
 11  2  1  0
 12 24  1  0
 13  8  2  0
 15  7  1  0
 17 11  2  0
 17 19  1  0
 18  1  2  0
 19 21  2  0
 20 19  1  0
 21 23  1  0
 23  9  2  0
 24 26  1  0
 24 28  2  0
 26 29  2  0
 27 14  2  0
 28 27  1  0
 29 14  1  0
 30 12  2  0
M  END
$$$$

     RDKit          3D

 24 30  0  0  0  0  0  0  0  0999 V2000
    6.0570  -32.0180  -31.8090 C   0  0  0  0  0  0  0  0  0  0  0  0
    4.4740  -33.1200  -33.6780 C   0  0  0  0  0  0  0  0  0  0  0  0
    9.8270  -34.1600  -34.0020 C   0  0  1  0  0  0  0  0  0  0  0  0
    8.7930  -32.8870  -32.1500 C   0  0  0  0  0  0  0  0  0  0  0  0
    7.1070  -35.1820  -34.2380 C   0  0  0  0  0  0  0  0  0  0  0  0
   11.3880  -33.6520  -32.0850 S   0  0  0  0  0  0  0  0  0  0  0  0
    3.9980  -33.7530  -34.6590 N   0  0  0  0  0  0  0  0  0  0  0  0
    9.7680  -36.0550  -33.2260 C   0  0  0  0  0  0  0  0  0  0  0  0
    6.5210  -32.8690  -32.6040 C   0  0  0  0  0  0  0  0  0  0  0  0
    5.6810  -33.4420  -33.5960 C   0  0  1  0  0  0  0  0  0  0  0  0
    7.7380  -33.2520  -32.7530 C   0  0  0  0  0  0  0  0  0  0  0  0
    5.0340  -34.6560  -35.1920 N   0  0  0  0  0  0  0  0  0  0  0  0
    8.5960  -34.9220  -34.2830 C   0  0  2  0  0  0  0  0  0  0  0  0
    9.9790  -34.5420  -31.1300 C   0  0  0  0  0  0  0  0  0  0  0  0
    8.2480  -32.0560  -31.1630 C   0  0  0  0  0  0  0  0  0  0  0  0
    9.7880  -33.4710  -32.7440 C   0  0  1  0  0  0  0  0  0  0  0  0
    9.9710  -33.6730  -31.6610 C   0  0  1  0  0  0  0  0  0  0  0  0
    4.5510  -31.7790  -31.7870 C   0  0  0  0  0  0  0  0  0  0  0  0
    7.1460  -31.5840  -31.0470 C   0  0  0  0  0  0  0  0  0  0  0  0
   10.3260  -34.7490  -32.3690 C   0  0  2  0  0  0  0  0  0  0  0  0
    6.0670  -34.4230  -34.3860 C   0  0  0  0  0  0  0  0  0  0  0  0
    3.8480  -32.2450  -32.7340 N   0  0  0  0  0  0  0  0  0  0  0  0
    9.3440  -34.8360  -33.2550 C   0  0  1  0  0  0  0  0  0  0  0  0
   10.1100  -35.7580  -33.2000 C   0  0  2  0  0  0  0  0  0  0  0  0
  1 18  1  0
  1 19  2  0
 10  2  1  1
  2 22  1  0
  3 23  1  0
  3 16  1  1
  4 15  2  0
 17  6  1  6
  7  2  2  0
 24  8  1  1
  9  1  1  0
 10  9  1  0
 11  9  2  0
 11  4  1  0
 12  7  1  0
 12 21  2  0
 13  5  1  1
 13  3  1  0
 13 23  1  0
 15 19  1  0
 16  4  1  1
 16 17  1  0
 17 14  1  0
 20 17  1  0
 20 14  1  1
 21  5  1  0
 21 10  1  0
 22 18  2  0
 23 24  1  6
 24 20  1  0
M  END
$$$$

     RDKit          3D

 21 23  0  0  0  0  0  0  0  0999 V2000
   10.9080  -32.6130  -33.3900 S   0  0  0  0  0  0  0  0  0  0  0  0
    6.3230  -35.1100  -33.7830 O   0  0  0  0  0  0  0  0  0  0  0  0
    9.3190  -36.7030  -33.8140 C   0  0  0  0  0  0  0  0  0  0  0  0
    7.7330  -35.3910  -35.3280 C   0  0  0  0  0  0  0  0  0  0  0  0
   10.8870  -33.6780  -29.1940 C   0  0  0  0  0  0  0  0  0  0  0  0
    9.4060  -33.3150  -31.1000 C   0  0  0  0  0  0  0  0  0  0  0  0
   10.3730  -35.1820  -31.5600 O   0  0  0  0  0  0  0  0  0  0  0  0
   11.9960  -32.5210  -31.1070 S   0  0  0  0  0  0  0  0  0  0  0  0
    7.0700  -36.1110  -34.5950 C   0  0  1  0  0  0  0  0  0  0  0  0
   10.2150  -33.9940  -31.8540 C   0  0  2  0  0  0  0  0  0  0  0  0
    7.8980  -36.9300  -33.9430 C   0  0  0  0  0  0  0  0  0  0  0  0
   10.5790  -33.8130  -30.8530 C   0  0  2  0  0  0  0  0  0  0  0  0
    9.9100  -33.7290  -32.8770 C   0  0  1  0  0  0  0  0  0  0  0  0
   10.9010  -35.6640  -33.5690 C   0  0  0  0  0  0  0  0  0  0  0  0
    6.0050  -35.1280  -36.1130 C   0  0  0  0  0  0  0  0  0  0  0  0
    9.2820  -32.7750  -32.4190 C   0  0  0  0  0  0  0  0  0  0  0  0
   10.1620  -34.2970  -33.8890 C   0  0  1  0  0  0  0  0  0  0  0  0
   11.5910  -35.8160  -34.2950 O   0  0  0  0  0  0  0  0  0  0  0  0
   10.0680  -35.7630  -33.3520 N   0  0  0  0  0  0  0  0  0  0  0  0
    9.5890  -34.3700  -35.0790 F   0  0  0  0  0  0  0  0  0  0  0  0
   11.2810  -33.5590  -31.8640 C   0  0  2  0  0  0  0  0  0  0  0  0
  1 13  1  0
  1 21  1  0
  3 19  1  0
  4  9  1  0
  6 12  1  0
  9 11  1  0
  9  2  1  1
 10  7  1  6
 10 12  1  0
 11  3  1  0
 12  5  1  1
 13 17  1  0
 13 16  1  1
 13 10  1  0
 14 19  1  0
 15  4  1  0
 16  6  1  0
 17 20  1  6
 17 19  1  0
 18 14  2  0
 21 10  1  0
 21  8  1  6
 21 12  1  0
M  END
$$$$

     RDKit          3D

 28 37  0  0  0  0  0  0  0  0999 V2000
   10.4530  -34.7120  -30.7650 C   0  0  0  0  0  0  0  0  0  0  0  0
    5.5110  -35.0570  -35.7810 C   0  0  0  0  0  0  0  0  0  0  0  0
    8.3820  -35.2010  -35.4760 C   0  0  2  0  0  0  0  0  0  0  0  0
    9.1380  -35.8390  -34.1890 C   0  0  0  0  0  0  0  0  0  0  0  0
    6.6850  -35.6430  -36.1380 C   0  0  0  0  0  0  0  0  0  0  0  0
    7.8620  -33.3310  -31.5620 O   0  0  0  0  0  0  0  0  0  0  0  0
    7.2190  -32.1650  -31.7000 C   0  0  1  0  0  0  0  0  0  0  0  0
    9.6100  -32.4750  -30.1890 O   0  0  0  0  0  0  0  0  0  0  0  0
    9.7330  -35.2530  -33.0850 C   0  0  2  0  0  0  0  0  0  0  0  0
    4.6140  -35.6710  -36.3180 O   0  0  0  0  0  0  0  0  0  0  0  0
   11.3380  -33.3110  -31.9860 C   0  0  0  0  0  0  0  0  0  0  0  0
   10.0130  -33.8280  -30.6120 C   0  0  2  0  0  0  0  0  0  0  0  0
    6.5850  -34.7660  -34.1520 C   0  0  2  0  0  0  0  0  0  0  0  0
    9.8580  -34.1620  -32.6440 C   0  0  1  0  0  0  0  0  0  0  0  0
    9.0630  -33.2090  -31.2630 C   0  0  1  0  0  0  0  0  0  0  0  0
   10.4520  -34.7370  -32.9070 C   0  0  0  0  0  0  0  0  0  0  0  0
    4.3550  -33.2820  -34.2400 C   0  0  0  0  0  0  0  0  0  0  0  0
    4.9720  -32.4640  -33.4480 C   0  0  0  0  0  0  0  0  0  0  0  0
    6.3470  -32.6690  -33.5420 C   0  0  1  0  0  0  0  0  0  0  0  0
    7.1590  -31.5910  -32.9090 C   0  0  0  0  0  0  0  0  0  0  0  0
    8.2620  -34.4950  -33.2300 C   0  0  1  0  0  0  0  0  0  0  0  0
    5.2940  -34.2960  -34.6900 C   0  0  1  0  0  0  0  0  0  0  0  0
    7.2850  -33.7300  -33.7350 C   0  0  1  0  0  0  0  0  0  0  0  0
    7.8660  -34.8450  -34.3650 C   0  0  1  0  0  0  0  0  0  0  0  0
    9.7350  -32.8100  -32.4650 O   0  0  0  0  0  0  0  0  0  0  0  0
    7.2520  -36.1460  -35.4450 C   0  0  0  0  0  0  0  0  0  0  0  0
    6.5150  -31.7050  -30.7040 F   0  0  0  0  0  0  0  0  0  0  0  0
   10.5350  -33.8390  -31.6790 C   0  0  2  0  0  0  0  0  0  0  0  0
  2 22  1  0
  3 26  1  6
 24  3  1  6
  3  4  1  0
  5  2  1  0
  5 26  1  0
 15  6  1  6
  7  6  1  0
  7 27  1  6
  9  4  1  6
  9 16  1  0
  9 14  1  0
 10  2  2  0
 28 11  1  6
 12  1  1  1
 12  8  1  0
 13 23  1  0
 14 25  1  0
 14 28  1  0
 15 12  1  0
 15  8  1  0
 14 16  1  6
 17 18  1  0
 19 18  1  1
 19 20  1  0
 20  7  1  0
 21  9  1  6
 22 17  1  6
 13 22  1  6
 23 19  1  6
 23 21  1  0
 24 13  1  0
 24 23  1  0
 24 21  1  0
 25 15  1  0
 28  1  1  0
 28 12  1  0
M  END
$$$$

     RDKit          3D

 29 36  0  0  0  0  0  0  0  0999 V2000
   10.5430  -34.9050  -34.8620 C   0  0  0  0  0  0  0  0  0  0  0  0
    8.3540  -34.2860  -33.7410 C   0  0  2  0  0  0  0  0  0  0  0  0
    9.7620  -35.2950  -34.3360 C   0  0  2  0  0  0  0  0  0  0  0  0
    6.9030  -33.9570  -33.5710 C   0  0  2  0  0  0  0  0  0  0  0  0
   10.3420  -34.3040  -34.0480 C   0  0  1  0  0  0  0  0  0  0  0  0
   12.5010  -33.4490  -30.4650 S   0  0  0  0  0  0  0  0  0  0  0  0
    6.0520  -34.4300  -33.3960 O   0  0  0  0  0  0  0  0  0  0  0  0
    7.6450  -32.7730  -32.0760 C   0  0  1  0  0  0  0  0  0  0  0  0
    9.8200  -34.1750  -30.3490 F   0  0  0  0  0  0  0  0  0  0  0  0
    6.9180  -35.0680  -35.4580 O   0  0  0  0  0  0  0  0  0  0  0  0
   11.8140  -34.0420  -33.0920 S   0  0  0  0  0  0  0  0  0  0  0  0
    7.6700  -33.5000  -33.5580 C   0  0  2  0  0  0  0  0  0  0  0  0
    5.3900  -32.4170  -31.4350 F   0  0  0  0  0  0  0  0  0  0  0  0
    6.5090  -32.3790  -32.3140 C   0  0  2  0  0  0  0  0  0  0  0  0
    8.2670  -35.4500  -35.1200 C   0  0  1  0  0  0  0  0  0  0  0  0
   10.6900  -33.6950  -32.1980 C   0  0  0  0  0  0  0  0  0  0  0  0
    7.8560  -32.0410  -29.9490 O   0  0  0  0  0  0  0  0  0  0  0  0
    8.5300  -33.8160  -32.6270 C   0  0  1  0  0  0  0  0  0  0  0  0
    6.1730  -32.7760  -33.2540 C   0  0  0  0  0  0  0  0  0  0  0  0
   10.3470  -32.9220  -31.1050 C   0  0  0  0  0  0  0  0  0  0  0  0
   11.5050  -34.2180  -33.3580 C   0  0  1  0  0  0  0  0  0  0  0  0
   11.4900  -33.0190  -31.6650 C   0  0  0  0  0  0  0  0  0  0  0  0
    8.3600  -36.2080  -33.9440 F   0  0  0  0  0  0  0  0  0  0  0  0
   10.1860  -33.0290  -29.7060 C   0  0  0  0  0  0  0  0  0  0  0  0
   11.2560  -33.4830  -31.0250 C   0  0  1  0  0  0  0  0  0  0  0  0
    9.5070  -34.0900  -33.3000 P   0  0  0  0  0  0  0  0  0  0  0  0
   10.2560  -34.6830  -32.6990 C   0  0  1  0  0  0  0  0  0  0  0  0
    7.7250  -34.8230  -34.7960 C   0  0  1  0  0  0  0  0  0  0  0  0
    7.8600  -32.3330  -30.9670 C   0  0  0  0  0  0  0  0  0  0  0  0
  3  1  1  6
  5  1  1  6
  2 12  1  0
  2 26  1  6
  2 18  1  0
  3  5  1  0
  3 26  1  0
 12  4  1  1
  4  7  1  1
  4 19  1  0
  5 21  1  0
  5 26  1  0
  8 29  1  6
  9 24  1  0
 28 10  1  1
 12 18  1  0
 12  8  1  0
 14  8  1  0
 14 13  1  1
 15 28  1  0
 15  3  1  0
 15 23  1  1
 16 22  1  0
 18  8  1  0
 19 14  1  0
 25 20  1  1
 21 11  1  1
 21 27  1  0
 22 25  1  0
 25  6  1  0
 25 24  1  0
 18 27  1  6
 27 16  1  1
 28  2  1  0
 28  4  1  0
 29 17  1  0
M  END
$$$$

     RDKit          3D

 15 19  0  0  0  0  0  0  0  0999 V2000
   10.4100  -34.7980  -33.3150 C   0  0  0  0  0  0  0  0  0  0  0  0
    8.5390  -32.7550  -32.2030 C   0  0  0  0  0  0  0  0  0  0  0  0
    9.7020  -35.1550  -33.9840 C   0  0  0  0  0  0  0  0  0  0  0  0
    7.9660  -33.5820  -32.9400 C   0  0  1  0  0  0  0  0  0  0  0  0
    6.2240  -34.0690  -34.4450 C   0  0  2  0  0  0  0  0  0  0  0  0
    8.9040  -35.3680  -33.3570 C   0  0  1  0  0  0  0  0  0  0  0  0
    8.7510  -35.9990  -33.8480 S   0  0  0  0  0  0  0  0  0  0  0  0
    8.9350  -34.0090  -33.2820 C   0  0  1  0  0  0  0  0  0  0  0  0
    6.6030  -32.4020  -32.8430 C   0  0  0  0  0  0  0  0  0  0  0  0
    8.1730  -34.6750  -33.8610 C   0  0  2  0  0  0  0  0  0  0  0  0
    9.8380  -33.7230  -31.7300 C   0  0  1  0  0  0  0  0  0  0  0  0
    6.9680  -34.7970  -34.4770 C   0  0  0  0  0  0  0  0  0  0  0  0
    6.5230  -33.1870  -33.3250 C   0  0  0  0  0  0  0  0  0  0  0  0
    5.3480  -33.9420  -34.9800 F   0  0  0  0  0  0  0  0  0  0  0  0
   10.7210  -33.9000  -32.5210 C   0  0  0  0  0  0  0  0  0  0  0  0
  1 15  1  0
 11  2  1  6
  3  6  1  0
  3  1  1  0
  4  2  1  1
  5 14  1  1
  5 13  1  0
  6  7  1  6
  6  8  1  0
  8  4  1  0
  8 11  1  6
 10  6  1  0
 10  8  1  0
 10  4  1  0
 12  5  1  0
 10 12  1  6
 13  4  1  0
 13  9  2  0
 15 11  1  0
M  END
$$$$

     RDKit          3D

 30 35  0  0  0  0  0  0  0  0999 V2000
    6.8010  -33.5580  -33.2890 C   0  0  2  0  0  0  0  0  0  0  0  0
   12.8610  -33.5010  -30.6760 C   0  0  0  0  0  0  0  0  0  0  0  0
   12.6320  -33.3150  -32.0120 C   0  0  0  0  0  0  0  0  0  0  0  0
    3.3530  -34.4400  -36.8870 O   0  0  0  0  0  0  0  0  0  0  0  0
    6.6100  -36.1040  -36.2700 C   0  0  0  0  0  0  0  0  0  0  0  0
   11.2870  -33.3450  -32.3420 C   0  0  0  0  0  0  0  0  0  0  0  0
    9.9620  -35.5200  -33.0150 O   0  0  0  0  0  0  0  0  0  0  0  0
    2.7830  -31.1580  -31.3020 C   0  0  0  0  0  0  0  0  0  0  0  0
    9.7120  -37.9990  -33.6790 C   0  0  0  0  0  0  0  0  0  0  0  0
    8.7830  -33.1310  -31.9790 N   0  0  0  0  0  0  0  0  0  0  0  0
   11.7990  -33.7040  -29.7940 C   0  0  0  0  0  0  0  0  0  0  0  0
    6.5570  -31.8750  -31.4010 C   0  0  1  0  0  0  0  0  0  0  0  0
    8.0740  -33.8760  -32.9110 C   0  0  1  0  0  0  0  0  0  0  0  0
    8.3080  -35.9660  -34.5130 C   0  0  2  0  0  0  0  0  0  0  0  0
    6.2090  -34.3540  -34.5290 C   0  0  0  0  0  0  0  0  0  0  0  0
    5.3300  -35.8770  -36.7770 C   0  0  0  0  0  0  0  0  0  0  0  0
   10.4480  -33.6990  -30.2010 C   0  0  0  0  0  0  0  0  0  0  0  0
    4.5660  -34.7740  -36.2420 C   0  0  0  0  0  0  0  0  0  0  0  0
    4.1760  -31.5010  -31.6740 C   0  0  1  0  0  0  0  0  0  0  0  0
    7.0320  -35.4450  -35.0480 C   0  0  0  0  0  0  0  0  0  0  0  0
   10.8670  -37.3340  -34.3180 C   0  0  0  0  0  0  0  0  0  0  0  0
   10.7950  -35.7970  -34.1630 C   0  0  0  0  0  0  0  0  0  0  0  0
    5.0080  -34.0220  -35.1460 C   0  0  0  0  0  0  0  0  0  0  0  0
   10.1570  -33.4280  -31.5860 C   0  0  0  0  0  0  0  0  0  0  0  0
    6.1110  -32.5290  -32.6290 C   0  0  2  0  0  0  0  0  0  0  0  0
    8.3750  -37.4370  -34.1330 C   0  0  0  0  0  0  0  0  0  0  0  0
    8.6760  -35.1820  -33.3110 C   0  0  1  0  0  0  0  0  0  0  0  0
    4.6100  -32.2670  -32.7470 C   0  0  0  0  0  0  0  0  0  0  0  0
    8.1990  -31.9980  -31.1750 C   0  0  0  0  0  0  0  0  0  0  0  0
    5.2210  -30.9370  -31.0240 N   0  0  0  0  0  0  0  0  0  0  0  0
  1 15  1  6
  1 13  1  0
  1 25  1  0
  2 11  2  0
  3  2  1  0
  4 18  1  0
  5 20  2  0
  6  3  2  0
  6 24  1  0
 10 24  1  0
 10 29  1  0
 12 29  1  6
 12 30  1  0
 13 10  1  1
 14 26  1  1
 14 27  1  0
 16  5  1  0
 16 18  2  0
 17 11  1  0
 18 23  1  0
 19  8  1  6
 19 30  1  0
 20 15  1  0
 20 14  1  0
 21 22  1  0
 21  9  1  0
 22  7  1  0
 23 15  2  0
 24 17  2  0
 25 28  1  1
 25 12  1  0
 26  9  1  0
 27  7  1  6
 27 13  1  0
 28 19  1  0
M  END
$$$$

     RDKit          3D

 21 24  0  0  0  0  0  0  0  0999 V2000
   10.8000  -32.9270  -30.0470 C   0  0  0  0  0  0  0  0  0  0  0  0
    9.7130  -36.2780  -34.1900 C   0  0  0  0  0  0  0  0  0  0  0  0
    9.9400  -34.3600  -33.4500 N   0  0  0  0  0  0  0  0  0  0  0  0
    8.5760  -34.6270  -33.7090 C   0  0  0  0  0  0  0  0  0  0  0  0
   11.8390  -33.7460  -30.7540 C   0  0  2  0  0  0  0  0  0  0  0  0
    4.1150  -32.1220  -32.4410 O   0  0  0  0  0  0  0  0  0  0  0  0
    8.7540  -35.6370  -34.7020 C   0  0  0  0  0  0  0  0  0  0  0  0
   10.8870  -35.1270  -34.2470 C   0  0  0  0  0  0  0  0  0  0  0  0
    6.1110  -35.0620  -35.0950 C   0  0  0  0  0  0  0  0  0  0  0  0
    5.2900  -33.3390  -33.7020 C   0  0  0  0  0  0  0  0  0  0  0  0
    5.3130  -32.5280  -32.7450 C   0  0  0  0  0  0  0  0  0  0  0  0
   13.2190  -33.2150  -30.9170 C   0  0  0  0  0  0  0  0  0  0  0  0
   10.5130  -33.3050  -32.4850 C   0  0  0  0  0  0  0  0  0  0  0  0
    6.3960  -32.1440  -32.1850 C   0  0  0  0  0  0  0  0  0  0  0  0
    7.5010  -32.7990  -32.4640 C   0  0  0  0  0  0  0  0  0  0  0  0
   12.0380  -33.6450  -32.3160 C   0  0  2  0  0  0  0  0  0  0  0  0
    6.3520  -34.1130  -34.1100 C   0  0  0  0  0  0  0  0  0  0  0  0
    7.6340  -33.9160  -33.3490 C   0  0  0  0  0  0  0  0  0  0  0  0
    7.9550  -36.3330  -35.4790 C   0  0  0  0  0  0  0  0  0  0  0  0
    2.8450  -32.0130  -31.9430 C   0  0  0  0  0  0  0  0  0  0  0  0
    6.7500  -35.9210  -35.9060 C   0  0  0  0  0  0  0  0  0  0  0  0
  3 13  1  0
  4  3  1  0
  4 18  1  0
  5  1  1  1
  6 20  1  0
  7  2  1  0
  7  4  2  0
  8  2  1  0
  8  3  1  0
  9 17  2  0
 10 11  1  0
 11  6  1  0
 11 14  2  0
 12  5  1  0
 15 14  1  0
 16 13  1  1
 16 12  1  0
 16  5  1  0
 17 10  1  0
 17 18  1  0
 18 15  2  0
 19  7  1  0
 21 19  2  0
 21  9  1  0
M  END
$$$$

     RDKit          3D

 19 19  0  0  0  0  0  0  0  0999 V2000
    8.1020  -35.3440  -34.7430 C   0  0  0  0  0  0  0  0  0  0  0  0
    8.1710  -32.3640  -31.6590 C   0  0  0  0  0  0  0  0  0  0  0  0
   10.4080  -35.0070  -33.4740 C   0  0  0  0  0  0  0  0  0  0  0  0
    6.3010  -32.7970  -32.5560 C   0  0  0  0  0  0  0  0  0  0  0  0
    9.5330  -35.8140  -33.5610 C   0  0  0  0  0  0  0  0  0  0  0  0
    9.1040  -36.4270  -33.7270 C   0  0  0  0  0  0  0  0  0  0  0  0
    5.6530  -33.2340  -33.5670 C   0  0  0  0  0  0  0  0  0  0  0  0
    6.7150  -35.0800  -34.9280 C   0  0  0  0  0  0  0  0  0  0  0  0
    8.1220  -33.7610  -33.0760 C   0  0  0  0  0  0  0  0  0  0  0  0
    5.7580  -33.9870  -34.8450 C   0  0  0  0  0  0  0  0  0  0  0  0
   10.4370  -33.8240  -31.8780 C   0  0  0  0  0  0  0  0  0  0  0  0
    7.9140  -34.9710  -33.9620 C   0  0  0  0  0  0  0  0  0  0  0  0
    5.0180  -33.9710  -35.4510 O   0  0  0  0  0  0  0  0  0  0  0  0
    5.7130  -32.1650  -31.7580 F   0  0  0  0  0  0  0  0  0  0  0  0
    8.0990  -34.2070  -33.6660 C   0  0  0  0  0  0  0  0  0  0  0  0
    9.4330  -33.9140  -32.3240 C   0  0  0  0  0  0  0  0  0  0  0  0
    7.5710  -35.2450  -35.0890 C   0  0  0  0  0  0  0  0  0  0  0  0
    8.4090  -33.0510  -32.4070 C   0  0  0  0  0  0  0  0  0  0  0  0
    9.6360  -34.9070  -32.7670 C   0  0  2  0  0  0  0  0  0  0  0  0
  1 12  1  0
  3 19  1  0
  4 14  1  0
  5  3  1  0
  5 19  1  0
  6  5  2  0
  7  4  2  3
  8 10  1  0
  9 18  2  0
 10  7  1  0
 12 15  1  0
 13 10  2  0
 15  9  2  0
 16 11  2  0
 17  8  1  0
 17  1  1  0
 18 16  1  0
 18  2  1  0
 19 16  1  6
M  END
$$$$

     RDKit          3D

 26 28  0  0  0  0  0  0  0  0999 V2000
    2.2210  -34.7070  -38.4690 C   0  0  0  0  0  0  0  0  0  0  0  0
    9.6440  -35.0990  -33.9110 C   0  0  0  0  0  0  0  0  0  0  0  0
    7.1670  -34.9200  -34.5070 C   0  0  0  0  0  0  0  0  0  0  0  0
    9.6210  -33.3810  -32.3250 C   0  0  2  0  0  0  0  0  0  0  0  0
   11.7300  -34.5840  -32.8560 C   0  0  0  0  0  0  0  0  0  0  0  0
   12.4120  -33.4900  -32.3070 C   0  0  0  0  0  0  0  0  0  0  0  0
    7.9670  -31.5230  -30.2060 O   0  0  0  0  0  0  0  0  0  0  0  0
    8.8710  -34.1900  -33.2470 C   0  0  0  0  0  0  0  0  0  0  0  0
    5.9470  -34.8670  -34.5640 O   0  0  0  0  0  0  0  0  0  0  0  0
    3.4930  -35.0390  -37.7850 C   0  0  0  0  0  0  0  0  0  0  0  0
    7.5110  -34.0360  -33.5490 C   0  0  0  0  0  0  0  0  0  0  0  0
   10.9100  -33.0270  -30.2800 C   0  0  0  0  0  0  0  0  0  0  0  0
    4.9640  -33.0420  -33.3290 O   0  0  0  0  0  0  0  0  0  0  0  0
    7.8920  -35.7750  -35.2180 C   0  0  0  0  0  0  0  0  0  0  0  0
    6.4150  -33.1050  -33.0460 C   0  0  1  0  0  0  0  0  0  0  0  0
    7.7120  -31.9760  -31.2320 C   0  0  0  0  0  0  0  0  0  0  0  0
    4.7190  -33.9200  -36.1340 C   0  0  0  0  0  0  0  0  0  0  0  0
    9.9910  -33.9280  -31.1160 C   0  0  0  0  0  0  0  0  0  0  0  0
    8.7040  -32.3970  -32.0680 N   0  0  0  0  0  0  0  0  0  0  0  0
    9.0890  -35.9640  -34.8370 C   0  0  0  0  0  0  0  0  0  0  0  0
    4.9670  -34.8880  -35.0990 C   0  0  0  0  0  0  0  0  0  0  0  0
    6.5450  -32.2120  -31.8290 C   0  0  0  0  0  0  0  0  0  0  0  0
   10.9800  -35.2730  -33.6380 C   0  0  0  0  0  0  0  0  0  0  0  0
    5.4540  -31.8310  -31.2910 C   0  0  0  0  0  0  0  0  0  0  0  0
    4.8520  -34.4670  -37.5150 C   0  0  0  0  0  0  0  0  0  0  0  0
   12.2650  -33.1240  -30.7680 C   0  0  0  0  0  0  0  0  0  0  0  0
  1 10  1  0
  2 23  1  0
  2  8  2  0
  3 11  2  0
  4 19  1  0
  4 18  1  1
  5  6  2  0
  6 26  1  0
  8  4  1  0
  9  3  1  0
 10 25  1  0
 11  8  1  0
 11 15  1  0
 14 20  2  0
 14  3  1  0
 15 13  1  1
 15 22  1  0
 16  7  2  0
 17 21  1  0
 18 12  1  0
 19 16  1  0
 20  2  1  0
 21  9  1  0
 22 24  2  0
 22 16  1  0
 23  5  2  0
 25 17  1  0
 26 12  1  0
M  END
$$$$

     RDKit          3D

 23 25  0  0  0  0  0  0  0  0999 V2000
   11.2430  -31.8790  -28.7600 C   0  0  0  0  0  0  0  0  0  0  0  0
    8.9570  -33.2650  -31.7510 C   0  0  0  0  0  0  0  0  0  0  0  0
    4.9770  -33.4480  -34.0270 N   0  0  0  0  0  0  0  0  0  0  0  0
    6.9240  -33.4750  -33.2260 N   0  0  0  0  0  0  0  0  0  0  0  0
   12.0200  -33.8450  -30.0270 C   0  0  0  0  0  0  0  0  0  0  0  0
   12.2610  -32.7270  -28.6550 N   0  0  0  0  0  0  0  0  0  0  0  0
   10.7390  -34.7690  -32.5990 C   0  0  0  0  0  0  0  0  0  0  0  0
    5.2290  -34.5960  -35.9570 C   0  0  0  0  0  0  0  0  0  0  0  0
   10.4730  -32.1120  -29.9710 C   0  0  0  0  0  0  0  0  0  0  0  0
    6.1620  -32.5530  -32.4790 C   0  0  0  0  0  0  0  0  0  0  0  0
    4.4190  -34.0420  -35.0960 C   0  0  2  0  0  0  0  0  0  0  0  0
   11.0030  -33.1820  -30.5850 C   0  0  0  0  0  0  0  0  0  0  0  0
    4.8510  -32.6960  -32.9650 C   0  0  0  0  0  0  0  0  0  0  0  0
   10.2520  -33.7570  -31.6130 C   0  0  0  0  0  0  0  0  0  0  0  0
    5.2480  -34.6820  -37.1640 O   0  0  0  0  0  0  0  0  0  0  0  0
    8.2450  -33.8190  -32.8800 C   0  0  0  0  0  0  0  0  0  0  0  0
    8.8060  -34.7690  -33.7330 C   0  0  0  0  0  0  0  0  0  0  0  0
    6.2790  -34.8290  -35.1550 C   0  0  0  0  0  0  0  0  0  0  0  0
    2.9060  -33.6040  -35.4060 C   0  0  0  0  0  0  0  0  0  0  0  0
   10.0640  -35.2040  -33.4990 C   0  0  0  0  0  0  0  0  0  0  0  0
   10.5000  -36.2320  -34.6010 C   0  0  0  0  0  0  0  0  0  0  0  0
    6.1960  -33.9460  -34.2700 C   0  0  1  0  0  0  0  0  0  0  0  0
   12.1660  -33.5540  -29.8040 C   0  0  0  0  0  0  0  0  0  0  0  0
  1  6  1  0
  2 14  2  0
  3 13  1  0
  4 16  1  0
  4 10  1  0
  7 14  1  0
  8 18  1  0
  8 11  1  0
  9  1  1  0
 11 19  1  6
 11  3  1  0
 12  5  2  0
 12  9  1  0
 13 10  2  0
 14 12  1  0
 15  8  2  0
 16  2  1  0
 17 20  1  0
 17 16  2  0
 20  7  2  0
 21 20  1  0
 22 18  1  1
 22  3  1  0
 22  4  1  0
 23  6  1  0
M  END
$$$$

     RDKit          3D

 17 20  0  0  0  0  0  0  0  0999 V2000
    6.5530  -32.4960  -32.8430 C   0  0  1  0  0  0  0  0  0  0  0  0
    4.5250  -32.0590  -31.2180 C   0  0  0  0  0  0  0  0  0  0  0  0
    8.1170  -33.7370  -33.4550 C   0  0  2  0  0  0  0  0  0  0  0  0
    9.4040  -33.4010  -32.7620 C   0  0  1  0  0  0  0  0  0  0  0  0
    9.3290  -32.4600  -31.8090 O   0  0  0  0  0  0  0  0  0  0  0  0
    5.6710  -33.4660  -33.6420 C   0  0  0  0  0  0  0  0  0  0  0  0
    6.0010  -31.6490  -31.4420 C   0  0  1  0  0  0  0  0  0  0  0  0
    6.6320  -34.2880  -34.6170 C   0  0  2  0  0  0  0  0  0  0  0  0
    7.4340  -32.6650  -32.7920 C   0  0  0  0  0  0  0  0  0  0  0  0
    8.5120  -32.2680  -30.5420 C   0  0  0  0  0  0  0  0  0  0  0  0
    4.3460  -33.4140  -33.9360 C   0  0  0  0  0  0  0  0  0  0  0  0
   11.5150  -35.7360  -34.4320 O   0  0  0  0  0  0  0  0  0  0  0  0
    7.0110  -31.8890  -30.3590 C   0  0  0  0  0  0  0  0  0  0  0  0
   10.4680  -34.2360  -33.0970 C   0  0  0  0  0  0  0  0  0  0  0  0
    8.9910  -35.2800  -34.7740 C   0  0  0  0  0  0  0  0  0  0  0  0
    8.0350  -34.9260  -34.2270 C   0  0  1  0  0  0  0  0  0  0  0  0
   10.2370  -35.0600  -34.2830 C   0  0  2  0  0  0  0  0  0  0  0  0
  1  9  1  0
  1  7  1  0
  3  9  1  1
  3  4  1  0
  4 14  1  1
  4  5  1  0
  5 10  1  0
  1  6  1  1
  7  2  1  1
  7 13  1  0
  8 16  1  0
  8  6  1  1
  8  3  1  0
 10 13  2  3
 11  6  2  0
 15 17  1  0
 16 15  1  6
 16  3  1  0
 17 12  1  1
 17 14  1  0
M  END
$$$$

     RDKit          3D

 24 26  0  0  0  0  0  0  0  0999 V2000
    4.3730  -34.3130  -34.1800 C   0  0  0  0  0  0  0  0  0  0  0  0
    9.8430  -35.0730  -33.5990 C   0  0  0  0  0  0  0  0  0  0  0  0
    5.3600  -35.4860  -36.7210 C   0  0  0  0  0  0  0  0  0  0  0  0
    4.6060  -32.3450  -32.7870 C   0  0  0  0  0  0  0  0  0  0  0  0
   11.4620  -34.0050  -31.2070 C   0  0  0  0  0  0  0  0  0  0  0  0
    9.6020  -32.8710  -30.9240 C   0  0  0  0  0  0  0  0  0  0  0  0
    5.6490  -34.4310  -34.2540 C   0  0  0  0  0  0  0  0  0  0  0  0
    9.9560  -32.3400  -29.8230 C   0  0  0  0  0  0  0  0  0  0  0  0
    9.1120  -35.2580  -34.6590 C   0  0  1  0  0  0  0  0  0  0  0  0
    5.8220  -36.4060  -35.9240 C   0  0  0  0  0  0  0  0  0  0  0  0
   11.6160  -32.1570  -28.1980 O   0  0  0  0  0  0  0  0  0  0  0  0
    9.4830  -34.0270  -32.9020 C   0  0  1  0  0  0  0  0  0  0  0  0
    9.2590  -36.6080  -35.2100 C   0  0  0  0  0  0  0  0  0  0  0  0
    8.6960  -33.5080  -32.9750 N   0  0  0  0  0  0  0  0  0  0  0  0
   11.0610  -35.4150  -33.4460 O   0  0  0  0  0  0  0  0  0  0  0  0
    3.8290  -33.2860  -33.6610 C   0  0  0  0  0  0  0  0  0  0  0  0
    5.8740  -32.5240  -32.7820 C   0  0  0  0  0  0  0  0  0  0  0  0
    7.8460  -33.7760  -33.4130 C   0  0  0  0  0  0  0  0  0  0  0  0
   11.9410  -33.5350  -30.1010 C   0  0  0  0  0  0  0  0  0  0  0  0
    6.8280  -35.4940  -34.7560 C   0  0  1  0  0  0  0  0  0  0  0  0
   11.2280  -32.6370  -29.3440 C   0  0  0  0  0  0  0  0  0  0  0  0
    7.9890  -35.0100  -34.6150 O   0  0  0  0  0  0  0  0  0  0  0  0
   10.3210  -33.6860  -31.5650 C   0  0  0  0  0  0  0  0  0  0  0  0
    6.4960  -33.6860  -33.5090 C   0  0  0  0  0  0  0  0  0  0  0  0
  1 16  2  0
  2 15  2  0
  2 12  1  0
  3 10  1  0
  4 17  2  0
  5 19  2  0
  6  8  1  0
  7  1  1  0
  7 24  2  0
  8 21  2  0
  9 13  1  1
  9 22  1  0
  9  2  1  0
 12 23  1  1
 14 12  1  0
 16  4  1  0
 18 14  1  0
 19 21  1  0
 20 10  1  6
 20 22  1  0
 20  7  1  0
 21 11  1  0
 23  5  1  0
 23  6  2  0
 24 18  1  0
 24 17  1  0
M  END
$$$$

     RDKit          3D

 23 28  0  0  0  0  0  0  0  0999 V2000
   10.2470  -32.5320  -30.6110 C   0  0  0  0  0  0  0  0  0  0  0  0
    7.1060  -31.8090  -31.3160 O   0  0  0  0  0  0  0  0  0  0  0  0
   10.0830  -34.0860  -32.5480 C   0  0  2  0  0  0  0  0  0  0  0  0
    8.9120  -34.0800  -33.2970 C   0  0  1  0  0  0  0  0  0  0  0  0
    5.6720  -34.8870  -35.0580 C   0  0  0  0  0  0  0  0  0  0  0  0
    6.8340  -33.1820  -33.0810 C   0  0  2  0  0  0  0  0  0  0  0  0
    5.3750  -32.9470  -33.2390 C   0  0  0  0  0  0  0  0  0  0  0  0
    7.4290  -34.1340  -33.7830 C   0  0  1  0  0  0  0  0  0  0  0  0
    6.9330  -34.7660  -34.8640 C   0  0  0  0  0  0  0  0  0  0  0  0
    9.2540  -35.9870  -35.1280 C   0  0  0  0  0  0  0  0  0  0  0  0
   11.4070  -32.0200  -28.7290 O   0  0  0  0  0  0  0  0  0  0  0  0
   12.5750  -33.8710  -31.4750 C   0  0  0  0  0  0  0  0  0  0  0  0
   10.0990  -35.5940  -34.3120 C   0  0  0  0  0  0  0  0  0  0  0  0
    5.0850  -34.0390  -34.1800 C   0  0  0  0  0  0  0  0  0  0  0  0
    8.8590  -32.8760  -32.1190 N   0  0  0  0  0  0  0  0  0  0  0  0
    7.5020  -32.6060  -31.9440 C   0  0  0  0  0  0  0  0  0  0  0  0
   12.5310  -33.2260  -30.2350 C   0  0  0  0  0  0  0  0  0  0  0  0
   11.3700  -32.6040  -29.9030 C   0  0  0  0  0  0  0  0  0  0  0  0
   11.6910  -33.9830  -32.5160 C   0  0  0  0  0  0  0  0  0  0  0  0
    9.8550  -34.7340  -33.3560 C   0  0  0  0  0  0  0  0  0  0  0  0
    9.7810  -33.1630  -31.5350 C   0  0  2  0  0  0  0  0  0  0  0  0
    8.1490  -35.3300  -35.2770 C   0  0  0  0  0  0  0  0  0  0  0  0
   12.2390  -34.0170  -33.7000 O   0  0  0  0  0  0  0  0  0  0  0  0
  1 18  1  0
  3 20  1  0
  3 19  1  1
  3 21  1  0
  4 20  1  0
  4  3  1  0
  4 15  1  6
  5  9  1  0
  5 14  1  0
  6  7  1  1
  6 16  1  0
  8  9  1  6
  8  4  1  0
  8  6  1  0
 10 13  1  0
 12 17  1  0
 13 20  2  0
 14  7  1  0
 15 16  1  0
 15 21  1  0
 16  2  2  0
 17 18  2  0
 18 11  1  0
 19 23  1  0
 19 12  1  0
 21  1  1  6
 22 10  2  0
 22  9  2  0
M  END
$$$$

     RDKit          3D

 25 29  0  0  0  0  0  0  0  0999 V2000
    3.9680  -30.8760  -31.0400 O   0  0  0  0  0  0  0  0  0  0  0  0
   10.4170  -36.1750  -34.5860 C   0  0  0  0  0  0  0  0  0  0  0  0
    5.6640  -32.0450  -32.0270 C   0  0  0  0  0  0  0  0  0  0  0  0
   10.9080  -37.5340  -34.0670 C   0  0  0  0  0  0  0  0  0  0  0  0
    3.3460  -32.3390  -32.6190 O   0  0  0  0  0  0  0  0  0  0  0  0
    6.1010  -34.1470  -35.0320 C   0  0  0  0  0  0  0  0  0  0  0  0
    9.3220  -36.0940  -35.0400 O   0  0  0  0  0  0  0  0  0  0  0  0
    4.3210  -31.7300  -31.8730 C   0  0  0  0  0  0  0  0  0  0  0  0
    4.1080  -33.0910  -33.5150 C   0  0  0  0  0  0  0  0  0  0  0  0
    8.0290  -32.2380  -31.1940 C   0  0  0  0  0  0  0  0  0  0  0  0
   12.3530  -33.2990  -31.6330 C   0  0  0  0  0  0  0  0  0  0  0  0
    6.4720  -33.6260  -33.8330 C   0  0  0  0  0  0  0  0  0  0  0  0
    4.7190  -34.3170  -35.3950 C   0  0  0  0  0  0  0  0  0  0  0  0
   10.1110  -34.3240  -32.8800 C   0  0  0  0  0  0  0  0  0  0  0  0
    6.7210  -31.7770  -31.1840 C   0  0  0  0  0  0  0  0  0  0  0  0
   11.3930  -35.2690  -34.5990 O   0  0  0  0  0  0  0  0  0  0  0  0
    3.7580  -33.7950  -34.6240 C   0  0  0  0  0  0  0  0  0  0  0  0
   10.0370  -33.8450  -31.6710 C   0  0  0  0  0  0  0  0  0  0  0  0
    8.0750  -33.4050  -31.9640 C   0  0  2  0  0  0  0  0  0  0  0  0
    5.4750  -32.9510  -33.1430 C   0  0  0  0  0  0  0  0  0  0  0  0
   11.0960  -33.2510  -31.0160 C   0  0  0  0  0  0  0  0  0  0  0  0
   11.3860  -34.4940  -33.4940 C   0  0  0  0  0  0  0  0  0  0  0  0
    8.9480  -34.4840  -32.2270 C   0  0  1  0  0  0  0  0  0  0  0  0
    7.7460  -33.4470  -33.4170 C   0  0  0  0  0  0  0  0  0  0  0  0
   12.4370  -33.9100  -32.8880 C   0  0  0  0  0  0  0  0  0  0  0  0
  2  4  1  0
  3  8  1  0
  3 15  2  0
  5  8  1  0
  6 12  2  0
  7  2  2  0
  8  1  2  0
  9 20  2  0
  9  5  1  0
 10 15  1  0
 11 21  2  0
 12 24  1  0
 12 20  1  0
 13  6  1  0
 13 17  2  0
 14 18  2  0
 16  2  1  0
 16 22  1  0
 17  9  1  0
 18 21  1  0
 19 24  1  6
 19 10  1  0
 20  3  1  0
 22 25  2  0
 22 14  1  0
 23 14  1  6
 23 19  1  0
 23 18  1  0
 25 11  1  0
M  END
$$$$

     RDKit          3D

 22 25  0  0  0  0  0  0  0  0999 V2000
    3.2900  -33.5340  -35.6820 C   0  0  0  0  0  0  0  0  0  0  0  0
    7.6880  -35.5320  -34.9370 O   0  0  0  0  0  0  0  0  0  0  0  0
    6.3260  -33.1630  -32.9190 N   0  0  0  0  0  0  0  0  0  0  0  0
    4.3470  -33.6090  -34.5580 C   0  0  0  0  0  0  0  0  0  0  0  0
   11.2190  -34.0630  -31.9150 C   0  0  0  0  0  0  0  0  0  0  0  0
    7.1540  -33.6990  -33.1420 C   0  0  1  0  0  0  0  0  0  0  0  0
   12.2240  -33.7950  -31.0870 C   0  0  0  0  0  0  0  0  0  0  0  0
   10.2800  -33.6380  -31.3920 N   0  0  0  0  0  0  0  0  0  0  0  0
    5.3770  -34.5000  -34.7260 C   0  0  0  0  0  0  0  0  0  0  0  0
    7.5280  -32.8540  -32.3710 C   0  0  0  0  0  0  0  0  0  0  0  0
    6.5800  -34.8570  -34.7690 C   0  0  0  0  0  0  0  0  0  0  0  0
   10.3520  -33.2250  -30.2340 N   0  0  0  0  0  0  0  0  0  0  0  0
    5.2800  -32.2260  -32.7960 C   0  0  0  0  0  0  0  0  0  0  0  0
   11.6490  -33.4000  -29.9840 C   0  0  0  0  0  0  0  0  0  0  0  0
    4.2740  -32.6790  -33.6640 C   0  0  0  0  0  0  0  0  0  0  0  0
    7.6180  -34.7980  -33.7290 C   0  0  1  0  0  0  0  0  0  0  0  0
    9.8410  -36.0100  -33.6090 C   0  0  0  0  0  0  0  0  0  0  0  0
    9.4720  -34.1680  -32.0710 C   0  0  0  0  0  0  0  0  0  0  0  0
    7.8220  -32.0350  -31.4990 O   0  0  0  0  0  0  0  0  0  0  0  0
    3.0360  -34.8410  -36.1870 O   0  0  0  0  0  0  0  0  0  0  0  0
    9.0980  -35.0430  -33.1910 C   0  0  2  0  0  0  0  0  0  0  0  0
   10.8150  -35.6300  -34.5630 C   0  0  0  0  0  0  0  0  0  0  0  0
  1  4  1  0
  2 11  1  0
 16  2  1  1
  3 13  1  0
  3 10  1  0
  4 15  1  0
  5  8  1  0
  5  7  2  0
  6  3  1  0
  6 10  1  1
  7 14  1  0
  8 12  1  0
  9  4  2  0
 10 19  2  0
 11  9  2  0
 11 16  1  0
 12 14  2  0
 15 13  1  0
 16 21  1  0
 16  6  1  0
 18  8  1  0
 20  1  1  0
 21 17  1  1
 21 18  1  0
 22 17  1  0
M  END
$$$$

     RDKit          3D

 25 29  0  0  0  0  0  0  0  0999 V2000
    9.5920  -33.2780  -32.3020 C   0  0  0  0  0  0  0  0  0  0  0  0
    6.5460  -31.6880  -32.9130 O   0  0  0  0  0  0  0  0  0  0  0  0
    7.2490  -35.0460  -34.2180 C   0  0  0  0  0  0  0  0  0  0  0  0
    5.0670  -33.7810  -33.7860 C   0  0  0  0  0  0  0  0  0  0  0  0
    6.6180  -36.0080  -35.1670 C   0  0  0  0  0  0  0  0  0  0  0  0
   10.9040  -35.2940  -33.0720 C   0  0  2  0  0  0  0  0  0  0  0  0
   11.1700  -36.4320  -34.1770 C   0  0  0  0  0  0  0  0  0  0  0  0
    8.3380  -33.2350  -32.6020 C   0  0  2  0  0  0  0  0  0  0  0  0
    8.7540  -36.5770  -33.6760 O   0  0  0  0  0  0  0  0  0  0  0  0
    5.8860  -31.5850  -31.7040 C   0  0  0  0  0  0  0  0  0  0  0  0
    5.6560  -35.5380  -36.1600 C   0  0  0  0  0  0  0  0  0  0  0  0
    6.5650  -33.7700  -33.8630 C   0  0  1  0  0  0  0  0  0  0  0  0
   10.8940  -33.9080  -30.0240 C   0  0  0  0  0  0  0  0  0  0  0  0
    8.9420  -34.3760  -32.0190 C   0  0  2  0  0  0  0  0  0  0  0  0
    9.1550  -32.1300  -32.0140 S   0  0  0  0  0  0  0  0  0  0  0  0
   10.1510  -32.8640  -29.8160 C   0  0  0  0  0  0  0  0  0  0  0  0
   10.7980  -34.6870  -31.3340 S   0  0  0  0  0  0  0  0  0  0  0  0
   10.4830  -33.4610  -31.7740 C   0  0  2  0  0  0  0  0  0  0  0  0
    9.5750  -34.6690  -32.9280 C   0  0  2  0  0  0  0  0  0  0  0  0
    3.8810  -34.1110  -34.8700 C   0  0  0  0  0  0  0  0  0  0  0  0
    7.2940  -32.6850  -33.2360 C   0  0  1  0  0  0  0  0  0  0  0  0
    9.3500  -32.0020  -30.6430 C   0  0  0  0  0  0  0  0  0  0  0  0
    8.4850  -35.4380  -33.7610 C   0  0  0  0  0  0  0  0  0  0  0  0
   10.6300  -33.5670  -32.4070 C   0  0  2  0  0  0  0  0  0  0  0  0
    4.3490  -35.4430  -35.4720 C   0  0  0  0  0  0  0  0  0  0  0  0
 18  1  1  6
  2 10  1  0
  3  5  1  0
  3 12  1  0
  3 23  1  0
  6  7  1  6
  6 19  1  0
 24  6  1  1
 14  8  1  6
  8 15  1  1
 11 25  1  0
 11  5  1  0
 12  4  1  1
 12 21  1  0
 13 16  1  0
 14 18  1  0
 15 22  1  0
 17 13  1  0
 18 17  1  0
 19 24  1  0
 19 14  1  0
 20  4  1  0
 21  2  1  1
 21  8  1  0
 22 16  2  3
 23  9  2  0
 19 23  1  6
 24 18  1  0
 25 20  1  0
M  END
$$$$

     RDKit          3D

 18 21  0  0  0  0  0  0  0  0999 V2000
    5.2040  -35.3360  -36.8470 O   0  0  0  0  0  0  0  0  0  0  0  0
    8.3630  -33.2050  -32.3070 C   0  0  1  0  0  0  0  0  0  0  0  0
    6.0690  -35.2880  -36.0850 C   0  0  0  0  0  0  0  0  0  0  0  0
    9.3060  -33.0150  -32.2510 C   0  0  0  0  0  0  0  0  0  0  0  0
    5.4380  -32.9080  -33.0240 C   0  0  0  0  0  0  0  0  0  0  0  0
    8.7900  -34.0720  -33.2950 C   0  0  0  0  0  0  0  0  0  0  0  0
    6.3520  -33.8390  -34.0480 C   0  0  0  0  0  0  0  0  0  0  0  0
    7.8480  -35.7790  -34.8610 C   0  0  0  0  0  0  0  0  0  0  0  0
    5.8440  -34.3400  -34.8630 C   0  0  0  0  0  0  0  0  0  0  0  0
    8.0710  -34.4380  -33.8880 C   0  0  1  0  0  0  0  0  0  0  0  0
    7.7230  -33.5790  -33.3310 C   0  0  2  0  0  0  0  0  0  0  0  0
    8.6310  -36.7270  -34.5600 O   0  0  0  0  0  0  0  0  0  0  0  0
    5.8510  -32.4040  -32.1860 C   0  0  0  0  0  0  0  0  0  0  0  0
    7.3410  -31.6340  -31.2850 C   0  0  0  0  0  0  0  0  0  0  0  0
    5.4300  -34.9320  -38.2260 O   0  0  0  0  0  0  0  0  0  0  0  0
    8.4310  -32.4950  -32.1220 C   0  0  0  0  0  0  0  0  0  0  0  0
    7.7130  -32.6500  -31.9660 C   0  0  1  0  0  0  0  0  0  0  0  0
    7.0650  -35.8110  -36.0910 C   0  0  0  0  0  0  0  0  0  0  0  0
  1  3  1  0
  2  4  1  1
  2 16  1  0
  2 17  1  0
  3  9  2  0
  5 13  1  0
  7 11  1  0
  7  5  2  0
  8 12  2  0
  8 10  1  0
  9  7  1  0
 10 11  1  0
 10  6  1  1
 11  6  1  6
 11  2  1  0
 13 17  1  0
 15  1  1  0
 16 17  1  0
 17 14  1  1
 18  3  1  0
 18  8  1  0
M  END
$$$$

     RDKit          3D

 26 29  0  0  0  0  0  0  0  0999 V2000
    9.6030  -36.2580  -34.6340 C   0  0  0  0  0  0  0  0  0  0  0  0
    6.7520  -35.6710  -35.3250 C   0  0  0  0  0  0  0  0  0  0  0  0
    3.3000  -34.5960  -37.9500 C   0  0  0  0  0  0  0  0  0  0  0  0
    9.8330  -33.1790  -31.2820 C   0  0  2  0  0  0  0  0  0  0  0  0
    4.7810  -35.4070  -36.3080 C   0  0  1  0  0  0  0  0  0  0  0  0
   10.0420  -31.7290  -29.3080 C   0  0  0  0  0  0  0  0  0  0  0  0
   10.5610  -34.0080  -31.8460 C   0  0  0  0  0  0  0  0  0  0  0  0
   12.6530  -31.6860  -26.7580 O   0  0  0  0  0  0  0  0  0  0  0  0
    6.2820  -35.0550  -36.7900 C   0  0  0  0  0  0  0  0  0  0  0  0
    8.7070  -32.5680  -31.7240 C   0  0  0  0  0  0  0  0  0  0  0  0
   10.7200  -31.3880  -28.2300 C   0  0  0  0  0  0  0  0  0  0  0  0
   12.2160  -33.0210  -28.7970 C   0  0  0  0  0  0  0  0  0  0  0  0
    7.9330  -34.9440  -34.0570 C   0  0  0  0  0  0  0  0  0  0  0  0
    8.1750  -35.6740  -34.2270 C   0  0  0  0  0  0  0  0  0  0  0  0
   10.3670  -32.6650  -30.1570 C   0  0  0  0  0  0  0  0  0  0  0  0
   10.8770  -35.2160  -33.4740 C   0  0  0  0  0  0  0  0  0  0  0  0
   11.4650  -33.4050  -29.9200 C   0  0  0  0  0  0  0  0  0  0  0  0
    5.3630  -34.5790  -34.0820 C   0  0  0  0  0  0  0  0  0  0  0  0
   10.5970  -36.1020  -34.1910 C   0  0  0  0  0  0  0  0  0  0  0  0
   11.8600  -32.0160  -27.9990 C   0  0  0  0  0  0  0  0  0  0  0  0
    4.5190  -34.3030  -35.2800 C   0  0  0  0  0  0  0  0  0  0  0  0
    8.1310  -32.9960  -32.6900 C   0  0  0  0  0  0  0  0  0  0  0  0
    8.4980  -34.0940  -33.1010 C   0  0  0  0  0  0  0  0  0  0  0  0
    6.8190  -34.7150  -34.6350 N   0  0  0  0  0  0  0  0  0  0  0  0
    3.6600  -35.6090  -37.0520 O   0  0  0  0  0  0  0  0  0  0  0  0
   10.0110  -34.4350  -32.9250 C   0  0  0  0  0  0  0  0  0  0  0  0
  1 14  2  0
  1 19  1  0
  2 24  1  0
  3 25  1  0
  4 15  1  6
  5 25  1  6
  5 21  1  0
  6 11  2  0
  7  4  1  0
  9  5  1  0
  9  2  1  0
 10  4  1  0
 11 20  1  0
 12 20  2  0
 13 23  2  0
 14 13  1  0
 15 17  2  0
 15  6  1  0
 16 26  2  0
 17 12  1  0
 19 16  1  0
 20  8  1  0
 21 18  1  0
 22 10  2  0
 23 26  1  0
 23 22  1  0
 24 18  1  0
 24 13  1  0
 26  7  1  0
M  END
$$$$

     RDKit          3D

 27 31  0  0  0  0  0  0  0  0999 V2000
   11.1010  -37.1440  -34.3020 C   0  0  0  0  0  0  0  0  0  0  0  0
   10.4740  -34.7920  -33.4360 C   0  0  1  0  0  0  0  0  0  0  0  0
    5.5180  -32.6550  -32.7940 N   0  0  0  0  0  0  0  0  0  0  0  0
    8.8240  -37.4610  -33.6500 O   0  0  0  0  0  0  0  0  0  0  0  0
    4.9790  -34.8120  -35.7450 C   0  0  0  0  0  0  0  0  0  0  0  0
   11.4930  -34.3610  -32.7840 C   0  0  0  0  0  0  0  0  0  0  0  0
    6.5320  -31.0070  -31.2450 C   0  0  0  0  0  0  0  0  0  0  0  0
   11.1190  -32.9890  -28.7640 C   0  0  0  0  0  0  0  0  0  0  0  0
    6.9320  -34.1950  -34.0030 C   0  0  0  0  0  0  0  0  0  0  0  0
   10.8420  -31.4470  -28.7420 C   0  0  0  0  0  0  0  0  0  0  0  0
    7.9470  -32.8820  -32.0580 C   0  0  0  0  0  0  0  0  0  0  0  0
    6.2360  -35.4500  -35.8690 C   0  0  0  0  0  0  0  0  0  0  0  0
   12.7090  -33.1920  -31.2510 O   0  0  0  0  0  0  0  0  0  0  0  0
    9.4300  -33.5580  -31.9310 C   0  0  0  0  0  0  0  0  0  0  0  0
    7.9450  -33.8110  -33.0820 C   0  0  0  0  0  0  0  0  0  0  0  0
    7.2890  -35.1420  -35.0370 C   0  0  0  0  0  0  0  0  0  0  0  0
    5.7530  -33.5770  -33.8720 C   0  0  0  0  0  0  0  0  0  0  0  0
    6.6720  -32.2190  -32.0990 C   0  0  0  0  0  0  0  0  0  0  0  0
   10.0290  -33.6140  -29.4990 C   0  0  0  0  0  0  0  0  0  0  0  0
   13.4470  -33.2480  -32.5850 C   0  0  0  0  0  0  0  0  0  0  0  0
   10.2940  -33.5900  -30.9680 C   0  0  0  0  0  0  0  0  0  0  0  0
    4.7350  -33.9040  -34.7250 C   0  0  0  0  0  0  0  0  0  0  0  0
   12.7390  -34.1230  -33.5440 O   0  0  0  0  0  0  0  0  0  0  0  0
   11.4780  -33.7730  -31.5780 C   0  0  0  0  0  0  0  0  0  0  0  0
    9.2610  -34.2550  -33.0340 N   0  0  0  0  0  0  0  0  0  0  0  0
   10.7080  -35.6890  -34.5670 C   0  0  0  0  0  0  0  0  0  0  0  0
   10.1310  -37.7530  -33.2160 C   0  0  0  0  0  0  0  0  0  0  0  0
  1 27  1  0
  2 26  1  6
  2 25  1  0
  2  6  1  0
  3 18  2  0
  4 27  1  0
  5 22  2  0
  6 24  2  0
  8 10  1  0
  9 17  2  0
  9 15  1  0
 11 14  1  0
 12  5  1  0
 12 16  2  0
 14 21  2  0
 15 25  1  0
 15 11  2  0
 16  9  1  0
 17  3  1  0
 18 11  1  0
 18  7  1  0
 19  8  1  0
 20 13  1  0
 21 19  1  0
 22 17  1  0
 23  6  1  0
 23 20  1  0
 24 13  1  0
 24 21  1  0
 25 14  1  0
 26  1  1  0
M  END
$$$$

     RDKit          3D

 19 22  0  0  0  0  0  0  0  0999 V2000
    8.4710  -34.0800  -32.9780 C   0  0  0  0  0  0  0  0  0  0  0  0
    8.8520  -35.9390  -34.4680 C   0  0  0  0  0  0  0  0  0  0  0  0
   10.3490  -35.1530  -32.7140 C   0  0  0  0  0  0  0  0  0  0  0  0
    5.1320  -32.7620  -33.3170 C   0  0  0  0  0  0  0  0  0  0  0  0
    7.1920  -33.9990  -33.6410 C   0  0  0  0  0  0  0  0  0  0  0  0
    6.5340  -32.8950  -33.0520 C   0  0  0  0  0  0  0  0  0  0  0  0
    7.6120  -35.7070  -34.9870 C   0  0  0  0  0  0  0  0  0  0  0  0
    7.0580  -31.4410  -31.0160 O   0  0  0  0  0  0  0  0  0  0  0  0
   10.7260  -34.2940  -31.7740 C   0  0  0  0  0  0  0  0  0  0  0  0
    7.7700  -31.6640  -31.6890 C   0  0  0  0  0  0  0  0  0  0  0  0
    4.2090  -31.9030  -32.2880 Cl  0  0  0  0  0  0  0  0  0  0  0  0
    5.3590  -34.5430  -34.9130 C   0  0  0  0  0  0  0  0  0  0  0  0
    6.6640  -34.7560  -34.5080 C   0  0  0  0  0  0  0  0  0  0  0  0
    9.2270  -35.1180  -33.4320 C   0  0  0  0  0  0  0  0  0  0  0  0
    7.6310  -32.3060  -32.3920 C   0  0  0  0  0  0  0  0  0  0  0  0
    7.4000  -30.9210  -31.0070 O   0  0  0  0  0  0  0  0  0  0  0  0
    9.8640  -33.4260  -31.4590 C   0  0  0  0  0  0  0  0  0  0  0  0
    4.5400  -33.5410  -34.2840 C   0  0  0  0  0  0  0  0  0  0  0  0
    8.7520  -33.2410  -32.1990 C   0  0  0  0  0  0  0  0  0  0  0  0
  1 19  1  0
  2 14  1  0
  3  9  1  0
  4  6  1  0
  4 11  1  0
  5  6  1  0
  5  1  2  0
  6 15  2  0
  7 13  1  0
  7  2  2  0
  8 16  1  0
  9 17  2  0
 10  8  1  0
 12 13  2  0
 12 18  1  0
 13  5  1  0
 14  1  1  0
 14  3  2  0
 15 19  1  0
 15 10  1  0
 18  4  2  0
 19 17  1  0
M  END
$$$$

     RDKit          3D

 30 35  0  0  0  0  0  0  0  0999 V2000
    9.6050  -33.6900  -32.5390 C   0  0  2  0  0  0  0  0  0  0  0  0
   12.4180  -33.4580  -31.8630 C   0  0  0  0  0  0  0  0  0  0  0  0
    5.1150  -34.1000  -35.1530 C   0  0  0  0  0  0  0  0  0  0  0  0
   13.2740  -33.1040  -28.4610 C   0  0  0  0  0  0  0  0  0  0  0  0
   13.6660  -33.5770  -31.7740 O   0  0  0  0  0  0  0  0  0  0  0  0
   11.6960  -33.2300  -30.8070 C   0  0  0  0  0  0  0  0  0  0  0  0
   10.4360  -34.7760  -32.7960 O   0  0  0  0  0  0  0  0  0  0  0  0
   10.4530  -32.9960  -30.6570 C   0  0  1  0  0  0  0  0  0  0  0  0
    5.4330  -35.3100  -37.3200 C   0  0  0  0  0  0  0  0  0  0  0  0
    4.0880  -34.8980  -37.5360 N   0  0  0  0  0  0  0  0  0  0  0  0
    7.3860  -32.8360  -32.5840 C   0  0  1  0  0  0  0  0  0  0  0  0
    5.8220  -31.5090  -31.4240 O   0  0  0  0  0  0  0  0  0  0  0  0
    5.8400  -35.0450  -35.9140 C   0  0  0  0  0  0  0  0  0  0  0  0
    7.0380  -33.9730  -33.6380 C   0  0  0  0  0  0  0  0  0  0  0  0
   12.6760  -33.3230  -29.5610 C   0  0  0  0  0  0  0  0  0  0  0  0
    3.6660  -33.6500  -35.4550 C   0  0  0  0  0  0  0  0  0  0  0  0
    1.9280  -34.3990  -37.2600 N   0  0  0  0  0  0  0  0  0  0  0  0
    7.6600  -35.0050  -34.3510 C   0  0  0  0  0  0  0  0  0  0  0  0
    9.4970  -33.2940  -31.5230 C   0  0  1  0  0  0  0  0  0  0  0  0
    9.9670  -32.4630  -29.4570 C   0  0  0  0  0  0  0  0  0  0  0  0
    3.4260  -34.9790  -38.7110 C   0  0  0  0  0  0  0  0  0  0  0  0
    7.0600  -35.5690  -35.4930 C   0  0  0  0  0  0  0  0  0  0  0  0
    8.7430  -32.7140  -32.2730 C   0  0  2  0  0  0  0  0  0  0  0  0
    8.3650  -32.0360  -31.2160 C   0  0  0  0  0  0  0  0  0  0  0  0
    5.1500  -32.5160  -33.3190 N   0  0  0  0  0  0  0  0  0  0  0  0
    8.9000  -31.7630  -30.0090 C   0  0  0  0  0  0  0  0  0  0  0  0
    3.2420  -34.3040  -36.6780 C   0  0  1  0  0  0  0  0  0  0  0  0
    5.7100  -33.5230  -34.0600 C   0  0  0  0  0  0  0  0  0  0  0  0
    6.2280  -32.2160  -32.4030 C   0  0  0  0  0  0  0  0  0  0  0  0
    2.0630  -34.8040  -38.4720 N   0  0  0  0  0  0  0  0  0  0  0  0
  1  7  1  1
  1 23  1  0
  1 19  1  0
  2  5  2  0
  3 28  2  0
  6  2  1  0
  6 15  1  0
  8  6  1  1
  8 20  1  0
  9 13  1  0
 10 21  1  0
 10  9  1  0
 10 27  1  0
 11 14  1  0
 11 29  1  6
 11 23  1  0
 13 22  2  0
 13  3  1  0
 15  4  3  0
 16  3  1  0
 17 27  1  0
 18 14  2  0
 19  8  1  6
 21 30  1  0
 22 18  1  0
 23 19  1  0
 23 24  1  6
 24 26  1  0
 25 29  1  0
 26 20  1  0
 27 16  1  6
 28 14  1  0
 28 25  1  0
 29 12  2  0
 30 17  1  0
M  END
$$$$

     RDKit          3D

 25 28  0  0  0  0  0  0  0  0999 V2000
    5.2200  -32.9230  -33.0920 C   0  0  0  0  0  0  0  0  0  0  0  0
    7.4370  -33.7980  -33.5980 C   0  0  0  0  0  0  0  0  0  0  0  0
    3.6970  -32.7840  -33.1810 C   0  0  0  0  0  0  0  0  0  0  0  0
   11.6510  -33.1900  -29.5760 C   0  0  0  0  0  0  0  0  0  0  0  0
   11.6070  -33.6550  -32.0400 N   0  0  0  0  0  0  0  0  0  0  0  0
    8.3080  -34.3240  -34.3610 O   0  0  0  0  0  0  0  0  0  0  0  0
    3.7350  -31.6230  -30.9280 C   0  0  0  0  0  0  0  0  0  0  0  0
    4.3920  -35.8370  -36.3930 C   0  0  0  0  0  0  0  0  0  0  0  0
    5.7360  -34.6080  -34.9190 N   0  0  0  0  0  0  0  0  0  0  0  0
    6.5260  -35.7420  -35.2550 C   0  0  0  0  0  0  0  0  0  0  0  0
    4.3720  -34.7650  -35.3910 C   0  0  0  0  0  0  0  0  0  0  0  0
   11.5390  -36.3840  -34.5610 C   0  0  0  0  0  0  0  0  0  0  0  0
    5.0920  -31.3550  -31.0390 O   0  0  0  0  0  0  0  0  0  0  0  0
    5.8120  -32.0360  -32.0050 C   0  0  0  0  0  0  0  0  0  0  0  0
   11.0980  -35.7120  -33.9120 C   0  0  0  0  0  0  0  0  0  0  0  0
    5.7410  -36.4570  -36.2500 C   0  0  0  0  0  0  0  0  0  0  0  0
    7.1840  -32.2190  -31.7300 C   0  0  0  0  0  0  0  0  0  0  0  0
   10.6030  -35.5300  -32.5920 O   0  0  0  0  0  0  0  0  0  0  0  0
   10.9940  -33.2130  -30.8530 C   0  0  1  0  0  0  0  0  0  0  0  0
    3.1260  -31.6900  -32.3160 C   0  0  0  0  0  0  0  0  0  0  0  0
    7.9690  -33.1670  -32.4850 C   0  0  0  0  0  0  0  0  0  0  0  0
    9.3230  -33.5020  -32.1000 C   0  0  0  0  0  0  0  0  0  0  0  0
    6.0340  -33.7580  -33.8110 C   0  0  0  0  0  0  0  0  0  0  0  0
    9.7560  -32.9990  -31.0160 N   0  0  0  0  0  0  0  0  0  0  0  0
   10.5390  -34.2440  -32.4110 C   0  0  0  0  0  0  0  0  0  0  0  0
  1 14  1  0
  2 21  1  0
  3  1  1  0
  3 20  1  0
  5 19  1  0
  6  2  2  0
  8 16  1  0
  8 11  1  0
  9 23  1  0
 10  9  1  0
 11  9  1  0
 12 15  2  0
 13  7  1  0
 14 17  2  0
 14 13  1  0
 15 18  1  0
 16 10  1  0
 18 25  1  0
 19  4  1  1
 20  7  1  0
 21 22  2  3
 21 17  1  0
 22 24  1  0
 23  2  1  0
 23  1  2  0
 24 19  1  0
 25 22  1  0
 25  5  2  0
M  END
$$$$

     RDKit          3D

 15 16  0  0  0  0  0  0  0  0999 V2000
    8.9480  -33.3750  -32.4630 C   0  0  1  0  0  0  0  0  0  0  0  0
    9.3200  -34.3670  -33.2380 C   0  0  0  0  0  0  0  0  0  0  0  0
    9.7510  -35.4980  -33.0080 C   0  0  0  0  0  0  0  0  0  0  0  0
   10.7020  -34.0420  -31.8810 C   0  0  2  0  0  0  0  0  0  0  0  0
    6.4370  -32.2950  -32.8270 C   0  0  0  0  0  0  0  0  0  0  0  0
    6.2140  -33.3780  -33.6300 C   0  0  0  0  0  0  0  0  0  0  0  0
    9.9070  -34.3170  -32.8620 C   0  0  2  0  0  0  0  0  0  0  0  0
    9.7430  -33.2500  -31.5400 C   0  0  0  0  0  0  0  0  0  0  0  0
    7.3320  -34.3570  -33.7570 C   0  0  0  0  0  0  0  0  0  0  0  0
   10.9500  -33.9790  -33.1750 C   0  0  0  0  0  0  0  0  0  0  0  0
    8.3470  -33.7560  -32.9860 C   0  0  0  0  0  0  0  0  0  0  0  0
    7.7750  -32.4230  -32.1170 C   0  0  0  0  0  0  0  0  0  0  0  0
    8.5880  -32.8220  -32.3060 C   0  0  0  0  0  0  0  0  0  0  0  0
    5.1010  -33.6150  -34.3030 N   0  0  0  0  0  0  0  0  0  0  0  0
    7.1670  -35.3400  -34.7110 F   0  0  0  0  0  0  0  0  0  0  0  0
  1 13  1  1
  1  8  1  0
  2 11  1  0
  2  7  1  0
  4 10  1  6
  4  8  1  0
  5 12  1  0
  6  5  1  0
  7  3  1  1
  7  4  1  0
  9  6  1  0
 10  7  1  0
 11  1  1  0
 13 12  1  0
 14  6  2  0
 15  9  1  0
M  END
$$$$

     RDKit          3D

 29 33  0  0  0  0  0  0  0  0999 V2000
    5.8520  -32.0850  -30.3640 C   0  0  0  0  0  0  0  0  0  0  0  0
    2.5940  -34.9160  -37.9410 C   0  0  0  0  0  0  0  0  0  0  0  0
    7.4610  -33.3250  -33.3340 C   0  0  0  0  0  0  0  0  0  0  0  0
    2.6790  -35.5860  -35.7900 N   0  0  0  0  0  0  0  0  0  0  0  0
    5.6880  -35.5210  -35.9100 C   0  0  2  0  0  0  0  0  0  0  0  0
    4.7830  -34.8880  -36.8550 C   0  0  0  0  0  0  0  0  0  0  0  0
    7.7200  -35.0050  -35.0600 C   0  0  0  0  0  0  0  0  0  0  0  0
    3.4170  -35.2140  -36.8530 C   0  0  0  0  0  0  0  0  0  0  0  0
    5.5360  -34.5700  -34.7340 C   0  0  1  0  0  0  0  0  0  0  0  0
    8.7610  -33.3140  -32.9870 C   0  0  0  0  0  0  0  0  0  0  0  0
    9.5470  -34.1330  -33.9630 C   0  0  0  0  0  0  0  0  0  0  0  0
    4.3270  -34.3660  -34.2740 O   0  0  0  0  0  0  0  0  0  0  0  0
    6.8370  -34.1960  -34.3300 C   0  0  0  0  0  0  0  0  0  0  0  0
    7.1250  -35.6570  -36.0570 O   0  0  0  0  0  0  0  0  0  0  0  0
    7.0170  -31.9370  -31.4270 C   0  0  2  0  0  0  0  0  0  0  0  0
   11.2640  -32.4420  -29.4860 C   0  0  0  0  0  0  0  0  0  0  0  0
   11.2440  -33.1080  -31.8390 C   0  0  0  0  0  0  0  0  0  0  0  0
    4.4180  -33.7290  -38.9730 C   0  0  0  0  0  0  0  0  0  0  0  0
   12.0540  -32.0840  -27.8130 Cl  0  0  0  0  0  0  0  0  0  0  0  0
    9.7850  -32.9500  -31.9640 C   0  0  0  0  0  0  0  0  0  0  0  0
    5.2820  -34.1340  -37.8890 C   0  0  0  0  0  0  0  0  0  0  0  0
    9.2140  -32.5110  -30.6830 C   0  0  0  0  0  0  0  0  0  0  0  0
    6.5520  -32.5730  -32.6640 C   0  0  1  0  0  0  0  0  0  0  0  0
    9.9760  -32.1870  -29.5750 C   0  0  0  0  0  0  0  0  0  0  0  0
    7.9550  -32.4180  -30.5970 O   0  0  0  0  0  0  0  0  0  0  0  0
    3.1190  -34.1250  -39.0480 C   0  0  0  0  0  0  0  0  0  0  0  0
    5.3760  -32.2180  -33.0740 O   0  0  0  0  0  0  0  0  0  0  0  0
   11.9070  -32.8960  -30.6600 C   0  0  0  0  0  0  0  0  0  0  0  0
    9.0360  -35.0220  -34.8050 C   0  0  0  0  0  0  0  0  0  0  0  0
  2  8  2  0
  3 10  1  0
  3 23  1  0
  5  6  1  6
  5  9  1  0
  6  8  1  0
  7 29  2  0
  7 13  1  0
  8  4  1  0
  9 13  1  0
  9 12  1  1
 10 20  1  0
 11 10  2  0
 13  3  2  0
 14  5  1  0
 14  7  1  0
 15 25  1  0
 15  1  1  1
 16 19  1  0
 17 28  1  0
 18 21  1  0
 20 17  2  0
 20 22  1  0
 21  6  2  0
 22 25  1  0
 22 24  2  0
 23 27  1  6
 23 15  1  0
 24 16  1  0
 26 18  2  0
 26  2  1  0
 28 16  2  0
 29 11  1  0
M  END
$$$$

     RDKit          3D

 32 39  0  0  0  0  0  0  0  0999 V2000
   10.0080  -34.8280  -30.8240 C   0  0  1  0  0  0  0  0  0  0  0  0
    8.5630  -33.9840  -32.5260 C   0  0  2  0  0  0  0  0  0  0  0  0
    9.8950  -35.5800  -33.6500 C   0  0  1  0  0  0  0  0  0  0  0  0
   10.0280  -32.5120  -31.2100 C   0  0  2  0  0  0  0  0  0  0  0  0
    7.2640  -32.1000  -30.8520 F   0  0  0  0  0  0  0  0  0  0  0  0
    3.3510  -32.2540  -33.3060 N   0  0  0  0  0  0  0  0  0  0  0  0
    4.4750  -32.6360  -33.1160 C   0  0  0  0  0  0  0  0  0  0  0  0
    5.2570  -32.0590  -32.0640 C   0  0  0  0  0  0  0  0  0  0  0  0
    9.3560  -34.4150  -33.4470 C   0  0  1  0  0  0  0  0  0  0  0  0
   12.4740  -34.6340  -33.1020 C   0  0  0  0  0  0  0  0  0  0  0  0
   11.9830  -34.2020  -33.7190 C   0  0  0  0  0  0  0  0  0  0  0  0
    6.4810  -35.0410  -34.8750 O   0  0  0  0  0  0  0  0  0  0  0  0
    7.1470  -33.7520  -33.0990 C   0  0  0  0  0  0  0  0  0  0  0  0
   12.1320  -32.6510  -32.3450 O   0  0  0  0  0  0  0  0  0  0  0  0
    3.9350  -34.1830  -34.7450 C   0  0  0  0  0  0  0  0  0  0  0  0
   12.1640  -33.9460  -30.3730 O   0  0  0  0  0  0  0  0  0  0  0  0
   11.8450  -33.3770  -31.3980 C   0  0  2  0  0  0  0  0  0  0  0  0
   10.1670  -33.9370  -29.4790 O   0  0  0  0  0  0  0  0  0  0  0  0
    7.6770  -35.4590  -34.8750 C   0  0  0  0  0  0  0  0  0  0  0  0
   10.3670  -35.2030  -34.8200 F   0  0  0  0  0  0  0  0  0  0  0  0
    6.7140  -32.5660  -32.1440 C   0  0  0  0  0  0  0  0  0  0  0  0
    8.4370  -35.3980  -34.1700 C   0  0  1  0  0  0  0  0  0  0  0  0
   10.9870  -34.4170  -30.3470 C   0  0  2  0  0  0  0  0  0  0  0  0
   10.1570  -36.8640  -33.5980 F   0  0  0  0  0  0  0  0  0  0  0  0
    6.2060  -34.0950  -33.8960 C   0  0  0  0  0  0  0  0  0  0  0  0
   11.7540  -33.9390  -32.6400 C   0  0  1  0  0  0  0  0  0  0  0  0
    9.4780  -33.3040  -31.9600 C   0  0  2  0  0  0  0  0  0  0  0  0
    4.7910  -33.6180  -33.9600 C   0  0  0  0  0  0  0  0  0  0  0  0
   10.3730  -33.7140  -33.1140 O   0  0  0  0  0  0  0  0  0  0  0  0
   10.3030  -33.6240  -30.8900 C   0  0  1  0  0  0  0  0  0  0  0  0
   10.0290  -31.8140  -30.4760 O   0  0  0  0  0  0  0  0  0  0  0  0
    9.6630  -35.8820  -31.5120 F   0  0  0  0  0  0  0  0  0  0  0  0
  1 32  1  6
  1 23  1  0
  2 13  1  6
  2 27  1  0
  3 24  1  6
  3  9  1  0
 30  4  1  1
  4 31  1  1
  6  7  1  0
  7  8  1  0
  9 29  1  6
  9  2  1  0
 26 10  1  1
 11 10  1  0
 11 26  1  0
 12 25  1  0
 13 21  1  0
 14 17  1  0
 15 28  1  0
 16 23  1  0
 17 16  1  1
 19 12  1  0
 20  3  1  0
 21  8  2  0
 21  5  1  0
 22 19  1  6
 22  3  1  0
 22  9  1  0
 23 18  1  6
 25 13  2  0
 26 14  1  0
 26 17  1  0
 27 29  1  6
 27  4  1  0
 27 30  1  0
 28 25  1  0
 28  7  2  0
 30  1  1  0
 30 23  1  0
M  END
$$$$

     RDKit          3D

 30 32  0  0  0  0  0  0  0  0999 V2000
   11.0550  -32.7510  -28.8390 C   0  0  0  0  0  0  0  0  0  0  0  0
    5.2140  -36.6210  -36.0730 C   0  0  0  0  0  0  0  0  0  0  0  0
    9.3560  -32.2410  -30.1290 N   0  0  0  0  0  0  0  0  0  0  0  0
    5.2120  -31.7850  -31.1350 C   0  0  0  0  0  0  0  0  0  0  0  0
   12.7590  -33.7830  -30.6440 C   0  0  0  0  0  0  0  0  0  0  0  0
   11.1380  -36.0500  -34.0210 C   0  0  0  0  0  0  0  0  0  0  0  0
   10.3500  -36.8290  -32.9760 C   0  0  0  0  0  0  0  0  0  0  0  0
    8.5670  -32.4580  -31.1660 C   0  0  0  0  0  0  0  0  0  0  0  0
   10.5300  -33.3300  -31.5760 C   0  0  1  0  0  0  0  0  0  0  0  0
    6.2880  -34.9060  -36.3890 O   0  0  0  0  0  0  0  0  0  0  0  0
    5.1610  -35.2890  -36.0800 C   0  0  1  0  0  0  0  0  0  0  0  0
   11.5670  -33.2640  -31.0740 C   0  0  1  0  0  0  0  0  0  0  0  0
   12.3560  -33.2270  -28.4530 C   0  0  0  0  0  0  0  0  0  0  0  0
   13.1610  -33.6550  -29.4060 C   0  0  0  0  0  0  0  0  0  0  0  0
    8.9880  -35.4900  -33.2020 C   0  0  0  0  0  0  0  0  0  0  0  0
    9.4630  -32.8590  -32.1260 N   0  0  0  0  0  0  0  0  0  0  0  0
    4.3200  -34.4480  -36.9680 C   0  0  0  0  0  0  0  0  0  0  0  0
    6.4320  -32.3800  -33.0980 C   0  0  0  0  0  0  0  0  0  0  0  0
   10.5060  -32.8510  -30.2870 C   0  0  2  0  0  0  0  0  0  0  0  0
    7.5380  -31.7720  -31.2960 N   0  0  0  0  0  0  0  0  0  0  0  0
    5.4630  -33.1430  -33.7150 C   0  0  0  0  0  0  0  0  0  0  0  0
    8.0870  -35.8560  -34.1660 C   0  0  0  0  0  0  0  0  0  0  0  0
   10.3650  -33.4980  -32.4890 C   0  0  0  0  0  0  0  0  0  0  0  0
    5.1120  -34.4430  -38.2150 O   0  0  0  0  0  0  0  0  0  0  0  0
    6.4140  -32.0060  -31.7980 C   0  0  1  0  0  0  0  0  0  0  0  0
   10.7640  -34.2230  -33.6720 O   0  0  0  0  0  0  0  0  0  0  0  0
    4.5140  -34.7450  -34.9940 O   0  0  0  0  0  0  0  0  0  0  0  0
   10.3920  -35.4550  -33.5390 C   0  0  2  0  0  0  0  0  0  0  0  0
    7.0780  -34.9920  -34.3610 C   0  0  0  0  0  0  0  0  0  0  0  0
    6.1350  -34.0560  -34.5920 C   0  0  2  0  0  0  0  0  0  0  0  0
  1 13  2  0
  5 14  2  0
 28  6  1  6
  8  3  1  0
  9 23  1  6
  9 12  1  0
  9 19  1  0
 10 11  1  0
 11  2  1  6
 11 27  1  0
 12  5  1  1
 12 19  1  0
 14 13  1  0
 17 11  1  0
 18 25  1  0
 19  3  1  6
 19  1  1  0
 20  8  1  0
 21 18  1  0
 22 15  1  0
 23 16  2  0
 24 17  1  0
 25 20  1  0
 25  4  1  6
 26 28  1  0
 26 23  1  0
 28 15  1  0
 28  7  1  0
 29 22  1  0
 30 27  1  1
 30 29  1  0
 30 21  1  0
M  END
$$$$

     RDKit          3D

 17 18  0  0  0  0  0  0  0  0999 V2000
    4.3110  -33.1840  -34.2920 C   0  0  0  0  0  0  0  0  0  0  0  0
    6.5930  -35.3450  -35.7140 F   0  0  0  0  0  0  0  0  0  0  0  0
    4.1880  -32.1980  -33.2360 F   0  0  0  0  0  0  0  0  0  0  0  0
    5.4270  -33.9920  -34.3980 C   0  0  0  0  0  0  0  0  0  0  0  0
    8.4270  -33.2470  -32.5460 C   0  0  0  0  0  0  0  0  0  0  0  0
   11.0700  -34.9120  -33.5650 C   0  0  0  0  0  0  0  0  0  0  0  0
   10.2560  -33.5470  -31.1760 O   0  0  0  0  0  0  0  0  0  0  0  0
    7.6150  -34.1460  -33.4950 C   0  0  0  0  0  0  0  0  0  0  0  0
    6.3660  -33.9590  -33.4620 N   0  0  0  0  0  0  0  0  0  0  0  0
    8.4850  -35.1380  -33.6880 N   0  0  0  0  0  0  0  0  0  0  0  0
    3.2420  -33.4840  -35.2340 C   0  0  0  0  0  0  0  0  0  0  0  0
    9.7070  -34.7320  -33.1630 C   0  0  2  0  0  0  0  0  0  0  0  0
   11.4990  -32.8900  -31.0370 C   0  0  0  0  0  0  0  0  0  0  0  0
    5.5170  -34.7750  -35.4740 C   0  0  0  0  0  0  0  0  0  0  0  0
    9.5250  -33.8020  -32.2090 C   0  0  0  0  0  0  0  0  0  0  0  0
    3.3820  -34.3590  -36.1060 C   0  0  0  0  0  0  0  0  0  0  0  0
    4.5230  -35.0430  -36.2900 C   0  0  0  0  0  0  0  0  0  0  0  0
  1  3  1  0
  2 14  1  0
  4  1  2  0
  4  9  1  0
  5 15  1  0
  7 13  1  0
  8  9  1  0
  8  5  1  0
 10  8  2  0
 10 12  1  0
 11  1  1  0
 12  6  1  6
 12 15  1  0
 14  4  1  0
 15  7  1  0
 16 11  2  0
 17 16  1  0
 17 14  2  0
M  END
$$$$

     RDKit          3D

 31 36  0  0  0  0  0  0  0  0999 V2000
    0.1860  -32.7320  -35.4950 C   0  0  0  0  0  0  0  0  0  0  0  0
   11.3960  -33.1740  -30.5150 C   0  0  0  0  0  0  0  0  0  0  0  0
    6.4230  -34.6960  -34.7380 C   0  0  0  0  0  0  0  0  0  0  0  0
    8.9650  -34.9660  -35.4780 O   0  0  0  0  0  0  0  0  0  0  0  0
    7.7860  -32.5500  -31.9430 C   0  0  2  0  0  0  0  0  0  0  0  0
   -0.3650  -33.5100  -36.6510 O   0  0  0  0  0  0  0  0  0  0  0  0
   10.6200  -36.5280  -33.2890 C   0  0  0  0  0  0  0  0  0  0  0  0
    0.6500  -34.0240  -37.5350 C   0  0  0  0  0  0  0  0  0  0  0  0
   10.5600  -33.6140  -30.5340 C   0  0  1  0  0  0  0  0  0  0  0  0
   12.1590  -34.1900  -32.5680 C   0  0  0  0  0  0  0  0  0  0  0  0
    1.4450  -33.3380  -34.9420 C   0  0  0  0  0  0  0  0  0  0  0  0
    4.1490  -33.9180  -34.1960 C   0  0  0  0  0  0  0  0  0  0  0  0
    3.6460  -34.2200  -35.4360 C   0  0  2  0  0  0  0  0  0  0  0  0
    4.8010  -34.1090  -36.4550 C   0  0  0  0  0  0  0  0  0  0  0  0
    9.6030  -35.8070  -32.9760 C   0  0  0  0  0  0  0  0  0  0  0  0
    8.2690  -35.2120  -34.5040 C   0  0  1  0  0  0  0  0  0  0  0  0
    8.7900  -35.0050  -33.3090 C   0  0  0  0  0  0  0  0  0  0  0  0
    8.3820  -32.1520  -31.1500 C   0  0  0  0  0  0  0  0  0  0  0  0
    2.1610  -34.1270  -37.0900 C   0  0  0  0  0  0  0  0  0  0  0  0
    7.2860  -33.4920  -33.0220 C   0  0  2  0  0  0  0  0  0  0  0  0
    8.4200  -33.8970  -32.5810 C   0  0  2  0  0  0  0  0  0  0  0  0
    7.8850  -34.9940  -34.3620 C   0  0  0  0  0  0  0  0  0  0  0  0
    5.7700  -35.2970  -35.8650 C   0  0  0  0  0  0  0  0  0  0  0  0
    8.8240  -32.9920  -33.4880 C   0  0  0  0  0  0  0  0  0  0  0  0
   11.4470  -34.6600  -31.5300 C   0  0  0  0  0  0  0  0  0  0  0  0
   12.7280  -34.3250  -30.1830 F   0  0  0  0  0  0  0  0  0  0  0  0
    9.4690  -33.0880  -31.2700 C   0  0  0  0  0  0  0  0  0  0  0  0
    2.3720  -34.1120  -35.7010 N   0  0  0  0  0  0  0  0  0  0  0  0
   11.4660  -33.9840  -30.3030 C   0  0  2  0  0  0  0  0  0  0  0  0
   10.9780  -37.3100  -34.1560 O   0  0  0  0  0  0  0  0  0  0  0  0
    5.8190  -33.5240  -33.8940 C   0  0  1  0  0  0  0  0  0  0  0  0
  1 11  1  0
  2 29  1  0
  3 22  2  0
  3 31  1  0
  5 18  1  1
  6  1  1  0
  7 15  1  0
  8 19  1  0
  8  6  1  0
  9 27  1  6
  9  2  1  0
  9 29  1  0
 10 25  2  0
 13 14  1  0
 13 12  1  0
 14 23  1  0
 16  4  1  6
 16 22  1  0
 16 17  1  0
 17 15  1  0
 17 21  1  0
 19 28  1  0
 20 24  1  6
 20 21  1  0
 20  5  1  0
 21 24  1  6
 21  5  1  0
 23  3  1  0
 25 29  1  0
 27 18  1  0
 13 28  1  6
 28 11  1  0
 29 26  1  1
 30  7  2  0
 31 12  1  1
 31 20  1  0
M  END
$$$$

     RDKit          3D

 15 16  0  0  0  0  0  0  0  0999 V2000
    8.0050  -33.3920  -32.7040 C   0  0  0  0  0  0  0  0  0  0  0  0
    9.5690  -32.8810  -33.0750 C   0  0  0  0  0  0  0  0  0  0  0  0
   10.0670  -32.8420  -31.6170 C   0  0  2  0  0  0  0  0  0  0  0  0
    8.2570  -32.9440  -33.4210 O   0  0  0  0  0  0  0  0  0  0  0  0
   11.1110  -31.6910  -28.4640 O   0  0  0  0  0  0  0  0  0  0  0  0
   11.5310  -33.0720  -31.5540 C   0  0  2  0  0  0  0  0  0  0  0  0
   11.5410  -32.7920  -28.7950 C   0  0  0  0  0  0  0  0  0  0  0  0
    8.5050  -32.6670  -31.0600 C   0  0  0  0  0  0  0  0  0  0  0  0
    9.2730  -34.2850  -34.2800 C   0  0  0  0  0  0  0  0  0  0  0  0
    8.5120  -33.5410  -33.0560 C   0  0  1  0  0  0  0  0  0  0  0  0
   10.8900  -34.5910  -33.7040 C   0  0  0  0  0  0  0  0  0  0  0  0
   11.9750  -32.7950  -29.7890 C   0  0  0  0  0  0  0  0  0  0  0  0
   10.5750  -33.7380  -33.2460 C   0  0  1  0  0  0  0  0  0  0  0  0
   12.2040  -33.2070  -32.4420 C   0  0  2  0  0  0  0  0  0  0  0  0
   13.5500  -33.3530  -32.7490 C   0  0  0  0  0  0  0  0  0  0  0  0
  2 10  1  0
  3  6  1  0
  3  8  1  1
  4 10  1  0
  6 12  1  6
  7  5  1  0
  9 11  1  0
  9 10  1  0
 10  1  1  1
 12  7  1  0
 13 11  1  1
 13  2  1  0
 13 14  1  0
 13  3  1  0
 14 15  1  1
 14  6  1  0
M  END
$$$$

     RDKit          3D

 27 32  0  0  0  0  0  0  0  0999 V2000
    6.0660  -32.4190  -32.0210 N   0  0  0  0  0  0  0  0  0  0  0  0
    7.1980  -32.8250  -32.4450 C   0  0  0  0  0  0  0  0  0  0  0  0
   11.4690  -33.4660  -31.4000 O   0  0  0  0  0  0  0  0  0  0  0  0
    5.0280  -34.7960  -37.6490 C   0  0  0  0  0  0  0  0  0  0  0  0
    7.6310  -35.6290  -35.6250 C   0  0  0  0  0  0  0  0  0  0  0  0
    3.6260  -34.2590  -37.2720 C   0  0  0  0  0  0  0  0  0  0  0  0
    4.0470  -33.2090  -35.2110 C   0  0  0  0  0  0  0  0  0  0  0  0
   11.0780  -36.3890  -33.4950 C   0  0  0  0  0  0  0  0  0  0  0  0
    8.4400  -35.7880  -34.3170 C   0  0  2  0  0  0  0  0  0  0  0  0
    9.3540  -35.0330  -33.7180 C   0  0  0  0  0  0  0  0  0  0  0  0
    5.1750  -33.1980  -34.0250 C   0  0  0  0  0  0  0  0  0  0  0  0
    7.4160  -33.8040  -33.4650 C   0  0  0  0  0  0  0  0  0  0  0  0
    9.4630  -33.4270  -32.3760 C   0  0  2  0  0  0  0  0  0  0  0  0
   10.8090  -33.5860  -32.7260 C   0  0  2  0  0  0  0  0  0  0  0  0
    4.9680  -32.5540  -32.8540 N   0  0  0  0  0  0  0  0  0  0  0  0
   10.3520  -37.3760  -34.0930 C   0  0  0  0  0  0  0  0  0  0  0  0
    8.6500  -32.0510  -30.6900 O   0  0  0  0  0  0  0  0  0  0  0  0
    8.5420  -34.3310  -33.5550 C   0  0  1  0  0  0  0  0  0  0  0  0
    8.9430  -37.1260  -34.4370 C   0  0  0  0  0  0  0  0  0  0  0  0
   10.9450  -33.5180  -30.0560 C   0  0  0  0  0  0  0  0  0  0  0  0
   10.6700  -34.9690  -33.4110 C   0  0  1  0  0  0  0  0  0  0  0  0
    8.7180  -32.7660  -31.6330 C   0  0  0  0  0  0  0  0  0  0  0  0
    5.2520  -36.0280  -34.7630 C   0  0  0  0  0  0  0  0  0  0  0  0
    6.3710  -33.8610  -34.3430 C   0  0  0  0  0  0  0  0  0  0  0  0
    5.8390  -34.8920  -36.6180 C   0  0  0  0  0  0  0  0  0  0  0  0
    3.5880  -34.3140  -35.7430 C   0  0  0  0  0  0  0  0  0  0  0  0
    6.2520  -35.0350  -35.3610 C   0  0  1  0  0  0  0  0  0  0  0  0
  2  1  2  0
  2 22  1  0
  3 20  1  0
  4  6  1  0
  4 25  1  0
  5 27  1  0
  6 26  1  0
  7 11  1  0
 21  8  1  1
  9  5  1  6
  9 10  1  0
 18 10  1  1
 10 21  1  0
 11 15  2  0
 12  2  1  0
 13 22  1  6
 14 13  1  0
 14  3  1  1
 15  1  1  0
 16  8  2  0
 18 12  1  0
 18 13  1  0
 19  9  1  0
 19 16  1  0
 21 14  1  0
 22 17  2  0
 24 11  1  0
 24 12  2  0
 25 27  1  0
 26  7  1  0
 27 23  1  1
 27 24  1  0
M  END
$$$$

     RDKit          3D

 36 41  0  0  0  0  0  0  0  0999 V2000
    9.0850  -35.6140  -36.0520 C   0  0  0  0  0  0  0  0  0  0  0  0
   10.2310  -33.0120  -32.2450 C   0  0  1  0  0  0  0  0  0  0  0  0
    3.4860  -34.8770  -37.1960 C   0  0  0  0  0  0  0  0  0  0  0  0
    9.4260  -36.3370  -33.3990 C   0  0  0  0  0  0  0  0  0  0  0  0
    6.8650  -32.7770  -32.7950 C   0  0  0  0  0  0  0  0  0  0  0  0
    7.1370  -35.4480  -37.5930 O   0  0  0  0  0  0  0  0  0  0  0  0
    7.7460  -35.2890  -36.4990 C   0  0  0  0  0  0  0  0  0  0  0  0
    5.8430  -34.9650  -37.3340 C   0  0  0  0  0  0  0  0  0  0  0  0
   11.5910  -33.3850  -29.8740 C   0  0  0  0  0  0  0  0  0  0  0  0
    9.6060  -35.0110  -32.8680 C   0  0  1  0  0  0  0  0  0  0  0  0
   11.4930  -32.3350  -27.9480 C   0  0  0  0  0  0  0  0  0  0  0  0
    3.6690  -34.4330  -36.0040 C   0  0  0  0  0  0  0  0  0  0  0  0
   11.0890  -34.9240  -32.9200 O   0  0  0  0  0  0  0  0  0  0  0  0
    2.2550  -34.9470  -37.8890 N   0  0  0  0  0  0  0  0  0  0  0  0
    7.1000  -34.7130  -35.6360 N   0  0  0  0  0  0  0  0  0  0  0  0
    4.8570  -34.2800  -35.3020 C   0  0  0  0  0  0  0  0  0  0  0  0
   10.4340  -32.2790  -28.4090 N   0  0  0  0  0  0  0  0  0  0  0  0
    6.6530  -33.6730  -33.7810 C   0  0  0  0  0  0  0  0  0  0  0  0
   12.3680  -33.2870  -33.5110 O   0  0  0  0  0  0  0  0  0  0  0  0
    9.1080  -34.3960  -34.1530 C   0  0  1  0  0  0  0  0  0  0  0  0
   12.1310  -33.8670  -30.9650 C   0  0  0  0  0  0  0  0  0  0  0  0
    9.0260  -32.1710  -32.2840 C   0  0  0  0  0  0  0  0  0  0  0  0
    6.2100  -32.2280  -32.2490 C   0  0  0  0  0  0  0  0  0  0  0  0
   12.3470  -33.1790  -28.8160 O   0  0  0  0  0  0  0  0  0  0  0  0
    8.7040  -31.9740  -31.1250 C   0  0  0  0  0  0  0  0  0  0  0  0
    5.9430  -34.6290  -36.0420 C   0  0  0  0  0  0  0  0  0  0  0  0
   11.5180  -33.5810  -32.4130 C   0  0  1  0  0  0  0  0  0  0  0  0
    9.4800  -35.8470  -34.7850 C   0  0  2  0  0  0  0  0  0  0  0  0
    9.1150  -32.7320  -29.9480 C   0  0  0  0  0  0  0  0  0  0  0  0
   10.4360  -32.8270  -29.7270 C   0  0  0  0  0  0  0  0  0  0  0  0
    5.3500  -33.6720  -33.9530 C   0  0  0  0  0  0  0  0  0  0  0  0
   11.7050  -32.0040  -26.6830 O   0  0  0  0  0  0  0  0  0  0  0  0
    7.4600  -34.2480  -34.4830 C   0  0  0  0  0  0  0  0  0  0  0  0
   10.9310  -32.3010  -31.7260 O   0  0  0  0  0  0  0  0  0  0  0  0
    4.6630  -35.1770  -37.9910 C   0  0  0  0  0  0  0  0  0  0  0  0
    4.3920  -33.2780  -33.2120 F   0  0  0  0  0  0  0  0  0  0  0  0
  2 34  1  1
  3 12  2  0
  4 10  1  0
  5 23  2  0
  6  8  1  0
  6  7  1  0
  7  1  1  0
  7 15  1  0
  9 30  1  0
  9 24  1  0
 10 13  1  6
 11 32  2  0
 12 16  1  0
 13 27  1  0
 14  3  1  0
 15 33  1  0
 16 31  2  0
 17 11  1  0
 18  5  1  0
 20 33  1  1
 20 10  1  0
 21  9  2  0
 22  2  1  0
 22 25  1  0
 24 11  1  0
 25 29  1  0
 26  8  1  0
 26 15  1  0
 26 16  1  0
 27 19  1  6
 27  2  1  0
 28  1  1  6
 28 20  1  0
 28  4  1  0
 29 30  1  0
 30 17  2  0
 31 18  1  0
 31 36  1  0
 33 18  2  0
 35  8  2  0
 35  3  1  0
M  END
$$$$

     RDKit          3D

 32 39  0  0  0  0  0  0  0  0999 V2000
    5.6710  -31.6680  -31.2950 C   0  0  0  0  0  0  0  0  0  0  0  0
    4.7000  -34.3010  -35.0240 N   0  0  0  0  0  0  0  0  0  0  0  0
   11.1260  -34.9500  -32.9030 C   0  0  0  0  0  0  0  0  0  0  0  0
    3.7390  -34.9890  -38.9530 O   0  0  0  0  0  0  0  0  0  0  0  0
    6.0490  -34.5410  -34.5250 C   0  0  0  0  0  0  0  0  0  0  0  0
    9.5720  -31.6690  -29.6790 C   0  0  0  0  0  0  0  0  0  0  0  0
    8.9630  -31.9720  -30.9790 C   0  0  0  0  0  0  0  0  0  0  0  0
   10.1420  -32.9910  -29.3420 C   0  0  1  0  0  0  0  0  0  0  0  0
    9.4410  -33.4310  -30.9870 C   0  0  1  0  0  0  0  0  0  0  0  0
    8.0960  -34.0500  -33.1750 C   0  0  0  0  0  0  0  0  0  0  0  0
    2.8770  -34.9820  -37.9310 C   0  0  0  0  0  0  0  0  0  0  0  0
    6.6930  -35.6040  -35.0700 C   0  0  0  0  0  0  0  0  0  0  0  0
    5.1800  -32.1650  -32.4070 C   0  0  0  0  0  0  0  0  0  0  0  0
    6.7860  -33.6950  -33.6390 C   0  0  0  0  0  0  0  0  0  0  0  0
   11.8300  -33.9240  -30.6130 C   0  0  0  0  0  0  0  0  0  0  0  0
   11.6000  -33.0090  -29.5560 C   0  0  2  0  0  0  0  0  0  0  0  0
    8.8550  -36.8230  -35.3040 O   0  0  0  0  0  0  0  0  0  0  0  0
    4.8720  -35.0590  -36.4110 C   0  0  2  0  0  0  0  0  0  0  0  0
    3.5020  -35.6670  -36.7020 C   0  0  0  0  0  0  0  0  0  0  0  0
    8.6950  -35.1060  -33.8270 C   0  0  0  0  0  0  0  0  0  0  0  0
   12.2130  -32.4940  -28.2420 C   0  0  0  0  0  0  0  0  0  0  0  0
   10.0200  -35.4790  -33.7320 C   0  0  0  0  0  0  0  0  0  0  0  0
    5.7490  -36.1710  -36.0310 O   0  0  0  0  0  0  0  0  0  0  0  0
    6.0570  -32.4830  -33.5270 C   0  0  0  0  0  0  0  0  0  0  0  0
   10.7050  -33.6280  -31.5980 C   0  0  1  0  0  0  0  0  0  0  0  0
    9.3220  -33.6710  -32.1980 C   0  0  2  0  0  0  0  0  0  0  0  0
   11.3860  -31.6730  -27.6380 O   0  0  0  0  0  0  0  0  0  0  0  0
    4.8230  -34.0760  -38.8910 C   0  0  0  0  0  0  0  0  0  0  0  0
    5.5330  -34.4230  -37.6350 C   0  0  0  0  0  0  0  0  0  0  0  0
   13.2900  -32.6740  -27.7770 O   0  0  0  0  0  0  0  0  0  0  0  0
   10.2800  -36.5100  -34.7130 C   0  0  0  0  0  0  0  0  0  0  0  0
    7.9270  -35.8460  -34.7650 C   0  0  0  0  0  0  0  0  0  0  0  0
  2  5  1  0
  4 28  1  0
  4 11  1  0
  5 14  2  0
  7  6  1  0
  8  6  1  6
  9  7  1  6
  9  8  1  0
 11 19  1  0
 12 32  2  0
 12  5  1  0
 13  1  2  0
 14 24  1  0
 14 10  1  0
 15 16  1  0
 16  8  1  0
 16 21  1  1
 17 32  1  0
 17 31  1  0
 18 23  1  0
 18  2  1  0
 18 19  1  6
 20 22  1  0
 20 10  2  0
 21 30  2  0
 21 27  1  0
 22  3  1  0
 23 12  1  0
 24 13  1  0
 25  3  1  1
 25  9  1  0
 25 15  1  0
 26 10  1  1
 26 25  1  0
 26  9  1  0
 28 29  1  0
 29 18  1  0
 31 22  2  0
 32 20  1  0
M  END
$$$$

     RDKit          3D

 21 23  0  0  0  0  0  0  0  0999 V2000
    9.9750  -35.5200  -34.0280 C   0  0  0  0  0  0  0  0  0  0  0  0
    6.1880  -34.0320  -33.9500 C   0  0  0  0  0  0  0  0  0  0  0  0
    7.7060  -35.5960  -34.5590 C   0  0  0  0  0  0  0  0  0  0  0  0
   11.3770  -32.5530  -29.9190 C   0  0  0  0  0  0  0  0  0  0  0  0
    6.5370  -35.6830  -35.4060 N   0  0  0  0  0  0  0  0  0  0  0  0
   10.1600  -32.9030  -30.4440 O   0  0  0  0  0  0  0  0  0  0  0  0
   11.1720  -34.9510  -32.0200 C   0  0  0  0  0  0  0  0  0  0  0  0
    9.6850  -34.4190  -33.3180 N   0  0  0  0  0  0  0  0  0  0  0  0
    3.4900  -33.2790  -33.8660 O   0  0  0  0  0  0  0  0  0  0  0  0
    6.7550  -32.3200  -32.4460 C   0  0  0  0  0  0  0  0  0  0  0  0
    7.4610  -34.4180  -33.8580 C   0  0  0  0  0  0  0  0  0  0  0  0
    8.1130  -32.7100  -32.4220 C   0  0  0  0  0  0  0  0  0  0  0  0
    8.9630  -36.0600  -34.7070 C   0  0  0  0  0  0  0  0  0  0  0  0
    5.6030  -34.8220  -34.8810 C   0  0  0  0  0  0  0  0  0  0  0  0
    5.7490  -33.1140  -33.1980 C   0  0  0  0  0  0  0  0  0  0  0  0
   10.7500  -33.6660  -32.5720 C   0  0  0  0  0  0  0  0  0  0  0  0
   12.0910  -33.3500  -30.3860 C   0  0  0  0  0  0  0  0  0  0  0  0
    3.8610  -31.9610  -31.8800 C   0  0  0  0  0  0  0  0  0  0  0  0
    8.4310  -33.8160  -33.1280 C   0  0  0  0  0  0  0  0  0  0  0  0
   11.6210  -34.7050  -30.5580 C   0  0  0  0  0  0  0  0  0  0  0  0
    4.4550  -32.6620  -33.0050 N   0  0  0  0  0  0  0  0  0  0  0  0
  1  8  1  0
  2 14  1  0
  2 11  1  0
  2 15  1  0
  3 11  2  0
  5 14  1  0
  5  3  1  0
  6  4  1  0
  7 20  1  0
  8 19  1  0
  8 16  1  0
  9 21  1  0
 10 12  1  0
 11 19  1  0
 13  3  1  0
 13  1  2  0
 15 21  1  0
 15 10  2  0
 16  7  1  0
 17  4  1  0
 19 12  2  0
 20 17  1  0
 21 18  1  0
M  END
$$$$

     RDKit          3D

 35 39  0  0  0  0  0  0  0  0999 V2000
    6.4330  -32.7420  -32.3970 N   0  0  0  0  0  0  0  0  0  0  0  0
    3.8510  -34.3750  -38.5010 C   0  0  0  0  0  0  0  0  0  0  0  0
    4.3480  -34.9430  -35.3860 O   0  0  0  0  0  0  0  0  0  0  0  0
    4.9980  -32.6190  -32.5690 C   0  0  0  0  0  0  0  0  0  0  0  0
   12.9030  -33.4860  -31.4330 C   0  0  0  0  0  0  0  0  0  0  0  0
    4.9760  -31.2240  -30.5580 N   0  0  0  0  0  0  0  0  0  0  0  0
   11.1970  -38.8760  -33.2450 O   0  0  0  0  0  0  0  0  0  0  0  0
    5.0590  -35.5340  -36.5460 C   0  0  0  0  0  0  0  0  0  0  0  0
   12.5670  -32.1970  -28.1940 O   0  0  0  0  0  0  0  0  0  0  0  0
    8.8060  -36.7180  -34.8560 C   0  0  0  0  0  0  0  0  0  0  0  0
    8.2640  -33.7120  -32.8500 N   0  0  0  0  0  0  0  0  0  0  0  0
    4.3060  -33.2330  -33.5900 C   0  0  0  0  0  0  0  0  0  0  0  0
   10.8990  -35.7200  -34.4010 O   0  0  0  0  0  0  0  0  0  0  0  0
   10.7540  -33.2800  -30.2550 C   0  0  0  0  0  0  0  0  0  0  0  0
   10.2760  -34.8530  -33.5020 C   0  0  0  0  0  0  0  0  0  0  0  0
    8.4350  -35.5960  -34.6890 C   0  0  0  0  0  0  0  0  0  0  0  0
   13.7910  -34.0710  -28.7390 O   0  0  0  0  0  0  0  0  0  0  0  0
    4.3260  -31.7980  -31.6190 C   0  0  0  0  0  0  0  0  0  0  0  0
    5.0690  -34.5200  -37.6330 C   0  0  0  0  0  0  0  0  0  0  0  0
   10.0860  -33.5750  -31.4360 C   0  0  0  0  0  0  0  0  0  0  0  0
    8.7490  -33.2460  -31.6610 C   0  0  0  0  0  0  0  0  0  0  0  0
    6.9260  -33.5630  -33.2470 C   0  0  0  0  0  0  0  0  0  0  0  0
    2.9420  -32.9970  -33.7750 C   0  0  0  0  0  0  0  0  0  0  0  0
   10.0950  -36.8150  -34.2110 C   0  0  1  0  0  0  0  0  0  0  0  0
    4.9400  -34.1080  -34.4690 C   0  0  0  0  0  0  0  0  0  0  0  0
    6.2840  -34.1310  -34.2800 C   0  0  0  0  0  0  0  0  0  0  0  0
   12.1890  -33.2820  -30.2700 C   0  0  0  0  0  0  0  0  0  0  0  0
   12.8060  -34.1260  -33.6970 F   0  0  0  0  0  0  0  0  0  0  0  0
   10.7240  -37.6220  -33.1330 C   0  0  0  0  0  0  0  0  0  0  0  0
   12.1920  -33.9040  -32.5380 C   0  0  0  0  0  0  0  0  0  0  0  0
    8.9750  -34.6690  -33.6250 C   0  0  0  0  0  0  0  0  0  0  0  0
   12.9090  -33.1680  -28.9460 C   0  0  0  0  0  0  0  0  0  0  0  0
   10.8520  -34.0750  -32.5250 C   0  0  0  0  0  0  0  0  0  0  0  0
    2.9630  -31.5340  -31.7670 C   0  0  0  0  0  0  0  0  0  0  0  0
    2.2610  -32.1940  -32.8290 C   0  0  0  0  0  0  0  0  0  0  0  0
  2 19  1  0
  3 25  1  0
  4  1  2  0
  4 18  1  0
  5 27  2  0
  7 29  1  0
  8  3  1  0
 10 16  1  0
 10 24  1  0
 11 21  1  0
 12  4  1  0
 13 24  1  0
 13 15  1  0
 15 33  1  0
 16 31  1  0
 18  6  1  0
 19  8  1  0
 20 14  2  0
 21 20  1  0
 22 11  1  0
 22  1  1  0
 23 12  1  0
 23 35  2  0
 24 29  1  1
 25 26  1  0
 25 12  2  0
 26 22  2  0
 27 14  1  0
 27 32  1  0
 28 30  1  0
 30 33  2  0
 30  5  1  0
 31 15  2  0
 31 11  1  0
 32 17  2  0
 32  9  1  0
 33 20  1  0
 34 18  2  0
 35 34  1  0
M  END
$$$$

     RDKit          3D

 18 20  0  0  0  0  0  0  0  0999 V2000
    9.9410  -36.3210  -34.4890 C   0  0  0  0  0  0  0  0  0  0  0  0
    5.6920  -33.1250  -33.6590 N   0  0  0  0  0  0  0  0  0  0  0  0
    9.5670  -35.3150  -33.6620 O   0  0  0  0  0  0  0  0  0  0  0  0
    8.1870  -35.6890  -34.7840 C   0  0  2  0  0  0  0  0  0  0  0  0
    8.1470  -36.1800  -35.9670 N   0  0  0  0  0  0  0  0  0  0  0  0
    7.2700  -34.7450  -34.5610 C   0  0  0  0  0  0  0  0  0  0  0  0
    8.7800  -33.7300  -32.6170 C   0  0  0  0  0  0  0  0  0  0  0  0
    8.8260  -32.0620  -30.4900 C   0  0  0  0  0  0  0  0  0  0  0  0
    8.3190  -35.1210  -34.0700 C   0  0  2  0  0  0  0  0  0  0  0  0
    6.8380  -35.8390  -36.3960 C   0  0  0  0  0  0  0  0  0  0  0  0
    9.8160  -32.8150  -30.8420 C   0  0  0  0  0  0  0  0  0  0  0  0
    5.8500  -32.2430  -32.6070 C   0  0  0  0  0  0  0  0  0  0  0  0
    7.5990  -31.7800  -30.9770 C   0  0  0  0  0  0  0  0  0  0  0  0
    7.7180  -33.2420  -32.6710 C   0  0  0  0  0  0  0  0  0  0  0  0
    6.4080  -35.1450  -35.6270 C   0  0  0  0  0  0  0  0  0  0  0  0
    6.8560  -33.8590  -33.7690 C   0  0  0  0  0  0  0  0  0  0  0  0
    9.9120  -33.5660  -31.9280 C   0  0  0  0  0  0  0  0  0  0  0  0
    7.0610  -32.3470  -31.9810 C   0  0  0  0  0  0  0  0  0  0  0  0
  1  3  1  0
  2 12  2  0
  4  5  1  6
  4  1  1  0
  4  9  1  0
  6 16  1  0
  7 17  2  0
  9  6  1  6
  9  3  1  0
 10  5  1  0
 10 15  1  0
 11  8  2  0
 12 18  1  0
 13  8  1  0
 14  7  1  0
 14 18  1  0
 16  2  1  0
 16 14  2  0
 17 11  1  0
 18 13  2  0
M  END
$$$$

     RDKit          3D

 23 27  0  0  0  0  0  0  0  0999 V2000
    6.2470  -35.5340  -35.9230 C   0  0  0  0  0  0  0  0  0  0  0  0
    7.6380  -34.6060  -34.2570 C   0  0  0  0  0  0  0  0  0  0  0  0
    3.0670  -33.1920  -34.2910 C   0  0  0  0  0  0  0  0  0  0  0  0
    8.3010  -33.0190  -32.1090 C   0  0  0  0  0  0  0  0  0  0  0  0
    5.1630  -34.8350  -35.5080 C   0  0  0  0  0  0  0  0  0  0  0  0
    8.6130  -35.2360  -36.1330 C   0  0  0  0  0  0  0  0  0  0  0  0
    5.8900  -32.1000  -32.3540 C   0  0  0  0  0  0  0  0  0  0  0  0
    9.0320  -33.9950  -32.5290 C   0  0  0  0  0  0  0  0  0  0  0  0
    8.7560  -34.6680  -33.6000 C   0  0  0  0  0  0  0  0  0  0  0  0
    9.8580  -32.5760  -30.5920 C   0  0  0  0  0  0  0  0  0  0  0  0
    4.4180  -33.2460  -33.8840 C   0  0  0  0  0  0  0  0  0  0  0  0
    7.4840  -35.1870  -35.4590 C   0  0  0  0  0  0  0  0  0  0  0  0
    4.6440  -32.2990  -32.8860 N   0  0  0  0  0  0  0  0  0  0  0  0
    7.0440  -32.8460  -32.8150 C   0  0  0  0  0  0  0  0  0  0  0  0
    5.4100  -33.9420  -34.4710 C   0  0  0  0  0  0  0  0  0  0  0  0
   10.6450  -33.5180  -31.0620 C   0  0  0  0  0  0  0  0  0  0  0  0
    9.6940  -35.5330  -33.5850 C   0  0  0  0  0  0  0  0  0  0  0  0
    8.7190  -32.3050  -31.1570 N   0  0  0  0  0  0  0  0  0  0  0  0
    6.0990  -31.1590  -31.3860 N   0  0  0  0  0  0  0  0  0  0  0  0
   10.1620  -34.3090  -32.0790 C   0  0  0  0  0  0  0  0  0  0  0  0
    6.6430  -33.8140  -33.8790 C   0  0  0  0  0  0  0  0  0  0  0  0
    9.5160  -36.5790  -34.2440 O   0  0  0  0  0  0  0  0  0  0  0  0
   10.7440  -35.3950  -32.5640 C   0  0  0  0  0  0  0  0  0  0  0  0
  1  5  1  0
  1 12  1  0
  2 21  2  0
  2  9  1  0
  3 11  1  0
  4 18  1  0
  5 15  1  0
  6 12  2  0
  7 19  1  0
  8  4  1  0
  8 20  1  0
  9 17  1  0
  9  8  2  0
 11 13  1  0
 12  2  1  0
 13  7  2  0
 14  7  1  0
 14  4  2  0
 15 11  2  0
 15 21  1  0
 16 10  1  0
 17 23  1  0
 18 10  2  0
 20 16  2  0
 21 14  1  0
 22 17  2  0
 23 20  1  0
M  END
$$$$

     RDKit          3D

 26 31  0  0  0  0  0  0  0  0999 V2000
    5.0660  -33.9780  -34.4930 C   0  0  1  0  0  0  0  0  0  0  0  0
    6.2110  -35.5530  -36.0290 C   0  0  0  0  0  0  0  0  0  0  0  0
    3.9790  -33.3000  -33.8450 C   0  0  0  0  0  0  0  0  0  0  0  0
    5.5810  -32.3650  -32.3810 C   0  0  0  0  0  0  0  0  0  0  0  0
   11.1630  -33.8450  -28.8010 F   0  0  0  0  0  0  0  0  0  0  0  0
   11.9040  -33.6390  -32.0280 C   0  0  0  0  0  0  0  0  0  0  0  0
    8.9610  -35.0640  -32.9000 C   0  0  2  0  0  0  0  0  0  0  0  0
    4.3300  -32.4930  -32.8640 N   0  0  0  0  0  0  0  0  0  0  0  0
   10.0740  -34.0020  -31.1130 C   0  0  0  0  0  0  0  0  0  0  0  0
    4.7950  -34.7800  -35.7570 C   0  0  0  0  0  0  0  0  0  0  0  0
    8.9420  -35.4340  -35.2540 S   0  0  1  0  0  0  0  0  0  0  0  0
   11.6650  -31.6190  -29.4680 F   0  0  0  0  0  0  0  0  0  0  0  0
   10.7240  -35.8930  -33.5590 C   0  0  0  0  0  0  0  0  0  0  0  0
    7.6060  -34.7370  -34.3800 C   0  0  0  0  0  0  0  0  0  0  0  0
   10.9370  -34.6460  -32.7980 N   0  0  0  0  0  0  0  0  0  0  0  0
    6.3320  -33.9460  -34.1820 C   0  0  0  0  0  0  0  0  0  0  0  0
   12.6490  -33.2540  -28.5010 F   0  0  0  0  0  0  0  0  0  0  0  0
    2.7890  -33.3100  -34.2910 O   0  0  0  0  0  0  0  0  0  0  0  0
    7.4320  -35.3010  -35.2940 C   0  0  0  0  0  0  0  0  0  0  0  0
   10.0310  -34.3700  -32.2200 C   0  0  1  0  0  0  0  0  0  0  0  0
   10.0110  -36.3220  -33.7530 C   0  0  2  0  0  0  0  0  0  0  0  0
   11.6900  -33.0100  -29.5110 C   0  0  1  0  0  0  0  0  0  0  0  0
   11.3420  -33.4850  -30.8260 C   0  0  0  0  0  0  0  0  0  0  0  0
    8.4170  -34.7550  -33.8490 C   0  0  1  0  0  0  0  0  0  0  0  0
    9.6000  -35.5610  -34.8410 C   0  0  0  0  0  0  0  0  0  0  0  0
    6.6090  -33.0490  -33.0220 C   0  0  0  0  0  0  0  0  0  0  0  0
  1 10  1  6
  1 16  1  0
  1  3  1  0
  2 10  1  0
  2 19  2  0
  3  8  1  0
  6 23  1  0
  7 20  1  6
  8  4  2  0
  9 23  1  0
 11 25  1  1
 11 24  1  0
 13 15  1  0
 14 16  1  0
 24 14  1  1
 15 20  1  0
 15  6  1  0
 16 26  2  0
 18  3  2  0
 19 11  1  0
 19 14  1  0
 20  9  1  1
 21 13  1  1
 21  7  1  0
 22 12  1  1
 22  5  1  0
 22 17  1  0
 23 22  1  0
 24  7  1  0
 25 21  1  0
 26  4  1  0
M  END
$$$$

     RDKit          3D

 28 32  0  0  0  0  0  0  0  0999 V2000
    4.2050  -34.1280  -34.7750 C   0  0  0  0  0  0  0  0  0  0  0  0
    5.7380  -35.3130  -37.2090 C   0  0  0  0  0  0  0  0  0  0  0  0
    2.1310  -35.1960  -37.5720 C   0  0  0  0  0  0  0  0  0  0  0  0
   11.5530  -32.3550  -29.6350 O   0  0  0  0  0  0  0  0  0  0  0  0
   11.5560  -32.9730  -30.6390 N   0  0  0  0  0  0  0  0  0  0  0  0
   10.0880  -35.8330  -34.3040 C   0  0  0  0  0  0  0  0  0  0  0  0
    6.1950  -32.9300  -33.1480 N   0  0  0  0  0  0  0  0  0  0  0  0
    6.2040  -31.2360  -31.3080 C   0  0  0  0  0  0  0  0  0  0  0  0
    8.5660  -34.3260  -33.2330 C   0  0  0  0  0  0  0  0  0  0  0  0
    9.2710  -32.8480  -31.5600 N   0  0  0  0  0  0  0  0  0  0  0  0
    7.1070  -31.5780  -31.5160 O   0  0  0  0  0  0  0  0  0  0  0  0
    5.4680  -34.2830  -34.9340 C   0  0  0  0  0  0  0  0  0  0  0  0
    4.5070  -35.2620  -37.6690 C   0  0  0  0  0  0  0  0  0  0  0  0
   12.0580  -34.0670  -32.3960 C   0  0  0  0  0  0  0  0  0  0  0  0
    9.7500  -34.8840  -33.2080 C   0  0  0  0  0  0  0  0  0  0  0  0
   12.4890  -33.5720  -31.2520 C   0  0  0  0  0  0  0  0  0  0  0  0
   10.3730  -36.4220  -34.5930 C   0  0  0  0  0  0  0  0  0  0  0  0
    6.4660  -33.8980  -33.9010 N   0  0  0  0  0  0  0  0  0  0  0  0
   10.1140  -37.0360  -33.3800 C   0  0  0  0  0  0  0  0  0  0  0  0
    3.3850  -35.1030  -36.8080 N   0  0  0  0  0  0  0  0  0  0  0  0
    7.2740  -35.4160  -35.2480 C   0  0  0  0  0  0  0  0  0  0  0  0
   10.8190  -34.1640  -32.4670 C   0  0  0  0  0  0  0  0  0  0  0  0
    6.1010  -35.0180  -35.8730 C   0  0  0  0  0  0  0  0  0  0  0  0
    8.3360  -33.2640  -32.4320 C   0  0  0  0  0  0  0  0  0  0  0  0
    3.2570  -34.3960  -35.8310 C   0  0  0  0  0  0  0  0  0  0  0  0
    7.4820  -34.7350  -34.0640 C   0  0  1  0  0  0  0  0  0  0  0  0
   10.4620  -33.2390  -31.5070 C   0  0  0  0  0  0  0  0  0  0  0  0
    7.1830  -32.6320  -32.3900 C   0  0  0  0  0  0  0  0  0  0  0  0
  2 23  1  0
  3 20  1  0
  5  4  1  0
  6 15  1  0
  7 28  2  0
  9 15  2  0
  9 24  1  0
 10 27  1  0
 11  8  1  0
 12  1  1  0
 12 18  1  0
 13  2  2  0
 13 20  1  0
 14 16  1  0
 15 22  1  0
 16  5  1  0
 17  6  1  0
 17 19  1  0
 18  7  1  0
 20 25  1  0
 22 14  1  0
 22 27  2  0
 23 21  1  0
 23 12  2  0
 24 28  1  0
 24 10  2  0
 25  1  2  0
 26 21  1  6
 26 18  1  0
 26  9  1  0
 27  5  1  0
 28 11  1  0
M  END
$$$$

     RDKit          3D

 15 17  0  0  0  0  0  0  0  0999 V2000
    8.9510  -32.8780  -32.0770 C   0  0  1  0  0  0  0  0  0  0  0  0
    9.1410  -34.3490  -32.8680 C   0  0  0  0  0  0  0  0  0  0  0  0
    6.0380  -33.5020  -33.9140 C   0  0  0  0  0  0  0  0  0  0  0  0
    7.7570  -34.0140  -33.0540 C   0  0  2  0  0  0  0  0  0  0  0  0
    8.1600  -32.1700  -31.8040 C   0  0  0  0  0  0  0  0  0  0  0  0
    7.6880  -32.2970  -32.8250 C   0  0  0  0  0  0  0  0  0  0  0  0
    8.0050  -34.9120  -33.9070 C   0  0  2  0  0  0  0  0  0  0  0  0
    6.8440  -33.0210  -33.1170 C   0  0  1  0  0  0  0  0  0  0  0  0
    9.7920  -33.0850  -31.6650 C   0  0  0  0  0  0  0  0  0  0  0  0
   10.8360  -33.4960  -30.8660 S   0  0  0  0  0  0  0  0  0  0  0  0
    8.6090  -35.8000  -34.3780 S   0  0  0  0  0  0  0  0  0  0  0  0
    9.0290  -34.0800  -32.9940 C   0  0  1  0  0  0  0  0  0  0  0  0
    9.9800  -35.4000  -32.4900 C   0  0  0  0  0  0  0  0  0  0  0  0
    6.3580  -34.7880  -34.6140 S   0  0  0  0  0  0  0  0  0  0  0  0
   10.0440  -34.3180  -31.9680 C   0  0  0  0  0  0  0  0  0  0  0  0
  1  5  1  0
  1  9  1  1
  2 13  1  0
  2 15  1  0
  8  3  1  6
  4 12  1  0
  6  5  1  0
  7  4  1  0
  7 12  1  0
  4  8  1  6
  8  6  1  0
  9 10  2  0
  7 11  1  1
 12  1  1  6
 13 15  1  0
 14  3  2  0
 15  9  1  0
M  END
$$$$

     RDKit          3D

 37 43  0  0  0  0  0  0  0  0999 V2000
    1.8070  -32.4610  -33.7410 O   0  0  0  0  0  0  0  0  0  0  0  0
    7.0210  -32.6000  -32.4660 C   0  0  0  0  0  0  0  0  0  0  0  0
    8.4560  -34.7640  -33.4480 C   0  0  0  0  0  0  0  0  0  0  0  0
   12.0220  -32.0150  -27.7770 O   0  0  0  0  0  0  0  0  0  0  0  0
    7.7970  -36.2490  -34.5800 C   0  0  0  0  0  0  0  0  0  0  0  0
   11.3580  -35.3920  -34.6430 C   0  0  0  0  0  0  0  0  0  0  0  0
    3.7870  -33.7440  -35.4130 C   0  0  0  0  0  0  0  0  0  0  0  0
    4.8850  -34.4190  -35.9130 C   0  0  0  0  0  0  0  0  0  0  0  0
    4.8710  -32.2940  -32.3060 C   0  0  0  0  0  0  0  0  0  0  0  0
    8.2630  -33.0200  -32.1630 C   0  0  0  0  0  0  0  0  0  0  0  0
    3.9750  -33.1110  -34.2550 N   0  0  0  0  0  0  0  0  0  0  0  0
    8.7600  -32.4360  -30.9850 O   0  0  0  0  0  0  0  0  0  0  0  0
    2.4230  -35.1960  -36.8740 C   0  0  0  0  0  0  0  0  0  0  0  0
    6.1150  -36.1500  -36.8450 C   0  0  0  0  0  0  0  0  0  0  0  0
    5.1130  -32.9130  -33.5400 C   0  0  0  0  0  0  0  0  0  0  0  0
    6.4000  -33.0720  -33.5700 C   0  0  0  0  0  0  0  0  0  0  0  0
    3.0090  -32.5040  -33.4780 C   0  0  0  0  0  0  0  0  0  0  0  0
    5.9540  -33.8640  -36.1190 F   0  0  0  0  0  0  0  0  0  0  0  0
    9.0160  -35.4290  -34.4130 N   0  0  0  0  0  0  0  0  0  0  0  0
   12.1440  -33.8900  -30.8040 C   0  0  0  0  0  0  0  0  0  0  0  0
    6.0100  -31.9860  -31.6200 C   0  0  0  0  0  0  0  0  0  0  0  0
    4.8260  -35.6010  -36.4130 C   0  0  0  0  0  0  0  0  0  0  0  0
    2.5320  -34.0500  -36.0190 C   0  0  0  0  0  0  0  0  0  0  0  0
   11.5690  -32.5550  -29.0590 C   0  0  0  0  0  0  0  0  0  0  0  0
    3.5440  -36.0310  -36.9650 C   0  0  0  0  0  0  0  0  0  0  0  0
   10.9520  -33.5870  -31.3280 C   0  0  0  0  0  0  0  0  0  0  0  0
   10.5420  -33.9820  -32.6480 C   0  0  0  0  0  0  0  0  0  0  0  0
   10.0570  -36.1540  -34.4860 C   0  0  0  0  0  0  0  0  0  0  0  0
    2.8280  -31.4390  -31.4240 O   0  0  0  0  0  0  0  0  0  0  0  0
    3.4880  -32.0060  -32.2770 C   0  0  0  0  0  0  0  0  0  0  0  0
    9.2110  -33.7730  -32.8370 C   0  0  0  0  0  0  0  0  0  0  0  0
   11.6060  -34.2740  -33.6930 C   0  0  0  0  0  0  0  0  0  0  0  0
   10.1070  -32.7920  -30.6260 C   0  0  0  0  0  0  0  0  0  0  0  0
   12.5250  -33.4480  -29.5360 C   0  0  0  0  0  0  0  0  0  0  0  0
    7.4950  -36.3800  -36.1000 C   0  0  0  0  0  0  0  0  0  0  0  0
   10.5720  -32.2310  -29.4580 C   0  0  0  0  0  0  0  0  0  0  0  0
   13.7160  -33.7160  -28.9880 O   0  0  0  0  0  0  0  0  0  0  0  0
  1 17  2  0
  2 10  1  0
  2 21  1  0
  3 31  1  0
  6 28  1  0
  6 32  2  0
  7 11  1  0
  8  7  1  0
  9 30  1  0
  9 21  1  0
 10 12  1  0
 11 15  1  0
 11 17  1  0
 12 33  1  0
 13 23  1  0
 14 22  1  0
 14 35  2  3
 15  9  2  0
 16 15  1  0
 16  2  2  0
 17 30  1  0
 18  8  1  0
 19  5  1  0
 19  3  1  0
 20 34  1  0
 22  8  2  0
 23  7  2  0
 24  4  1  0
 25 13  2  0
 25 22  1  0
 26 20  1  0
 26 33  1  0
 27 26  2  0
 28 19  1  0
 30 29  2  0
 31 27  1  0
 31 10  2  0
 32 27  1  0
 33 36  2  0
 34 24  2  0
 34 37  1  0
 35  5  1  0
 36 24  1  0
M  END
$$$$

     RDKit          3D

 25 27  0  0  0  0  0  0  0  0999 V2000
   11.2190  -33.0130  -29.5690 C   0  0  0  0  0  0  0  0  0  0  0  0
    8.4660  -34.3680  -33.5490 C   0  0  0  0  0  0  0  0  0  0  0  0
    5.8800  -34.7840  -36.1730 N   0  0  0  0  0  0  0  0  0  0  0  0
    7.9150  -34.9210  -34.5820 C   0  0  0  0  0  0  0  0  0  0  0  0
   11.6930  -33.7060  -31.7410 C   0  0  0  0  0  0  0  0  0  0  0  0
   10.7480  -35.5450  -33.5930 C   0  0  0  0  0  0  0  0  0  0  0  0
    6.2660  -34.5550  -37.4660 C   0  0  0  0  0  0  0  0  0  0  0  0
    3.3110  -33.1720  -34.6270 C   0  0  0  0  0  0  0  0  0  0  0  0
   10.0190  -33.1720  -29.8840 C   0  0  0  0  0  0  0  0  0  0  0  0
    4.7230  -35.1840  -36.0550 N   0  0  0  0  0  0  0  0  0  0  0  0
    6.5310  -32.9650  -33.1290 C   0  0  0  0  0  0  0  0  0  0  0  0
   10.3900  -33.9510  -31.9970 C   0  0  0  0  0  0  0  0  0  0  0  0
    6.6640  -34.5470  -34.9840 C   0  0  0  0  0  0  0  0  0  0  0  0
    9.8690  -34.5380  -33.1370 N   0  0  0  0  0  0  0  0  0  0  0  0
    2.3290  -33.4160  -35.7080 C   0  0  0  0  0  0  0  0  0  0  0  0
    5.0760  -34.3830  -38.2120 C   0  0  0  0  0  0  0  0  0  0  0  0
   11.6400  -32.6270  -28.3110 C   0  0  0  0  0  0  0  0  0  0  0  0
    4.6260  -33.6370  -34.6690 N   0  0  0  0  0  0  0  0  0  0  0  0
    5.9140  -33.7150  -34.2390 C   0  0  0  0  0  0  0  0  0  0  0  0
    9.5940  -33.6890  -31.0040 C   0  0  0  0  0  0  0  0  0  0  0  0
   11.3880  -35.2590  -34.8640 C   0  0  0  0  0  0  0  0  0  0  0  0
    4.1670  -35.2900  -37.3590 C   0  0  0  0  0  0  0  0  0  0  0  0
   12.0940  -33.2760  -30.5610 C   0  0  0  0  0  0  0  0  0  0  0  0
    2.8100  -32.5030  -33.4860 C   0  0  0  0  0  0  0  0  0  0  0  0
    7.8380  -33.4170  -32.9590 C   0  0  0  0  0  0  0  0  0  0  0  0
  1 17  1  0
  2 14  1  0
  2 25  1  0
  3 10  1  0
  3 13  1  0
  4  2  2  0
  5 23  2  0
  6 14  1  0
  7  3  1  0
  8 24  1  0
  9  1  2  0
 11 25  2  0
 12  5  1  0
 12 20  2  0
 13  4  1  0
 13 19  2  0
 14 12  1  0
 15  8  1  0
 16  7  1  0
 16 22  1  0
 18  8  2  3
 18 19  1  0
 19 11  1  0
 20  9  1  0
 21  6  1  0
 22 10  1  0
 23  1  1  0
M  END
$$$$

     RDKit          3D

 21 24  0  0  0  0  0  0  0  0999 V2000
    3.8110  -34.4900  -35.4730 C   0  0  0  0  0  0  0  0  0  0  0  0
   10.6770  -33.9180  -31.4820 O   0  0  0  0  0  0  0  0  0  0  0  0
    4.8130  -36.0060  -36.8550 C   0  0  0  0  0  0  0  0  0  0  0  0
   11.0630  -33.1900  -30.2300 C   0  0  0  0  0  0  0  0  0  0  0  0
    7.0900  -34.9030  -34.3960 C   0  0  0  0  0  0  0  0  0  0  0  0
    8.9390  -34.0150  -32.7290 C   0  0  0  0  0  0  0  0  0  0  0  0
   12.0800  -33.4170  -29.6760 O   0  0  0  0  0  0  0  0  0  0  0  0
    7.0360  -33.1360  -33.1220 C   0  0  0  0  0  0  0  0  0  0  0  0
    7.8640  -31.8490  -31.2590 C   0  0  0  0  0  0  0  0  0  0  0  0
   10.0020  -32.1690  -30.0390 C   0  0  0  0  0  0  0  0  0  0  0  0
    7.7900  -33.9760  -33.3750 C   0  0  0  0  0  0  0  0  0  0  0  0
    9.4610  -33.3950  -31.9920 C   0  0  1  0  0  0  0  0  0  0  0  0
    5.9850  -35.0050  -35.0600 C   0  0  0  0  0  0  0  0  0  0  0  0
    9.0280  -35.9670  -33.3490 C   0  0  0  0  0  0  0  0  0  0  0  0
    8.0120  -36.1220  -34.6550 C   0  0  0  0  0  0  0  0  0  0  0  0
    4.0510  -34.6900  -36.9160 O   0  0  0  0  0  0  0  0  0  0  0  0
    9.0140  -32.5100  -31.1510 C   0  0  0  0  0  0  0  0  0  0  0  0
    5.0480  -34.0240  -34.8760 C   0  0  0  0  0  0  0  0  0  0  0  0
    7.0320  -32.2020  -32.1900 C   0  0  0  0  0  0  0  0  0  0  0  0
    5.8240  -35.9910  -35.9820 C   0  0  0  0  0  0  0  0  0  0  0  0
    9.8320  -34.8490  -33.5620 C   0  0  0  0  0  0  0  0  0  0  0  0
  1 18  1  0
  2  4  1  0
  3 20  1  0
  4 10  1  0
  4  7  2  0
  5 11  1  0
  8 19  2  0
  9 17  2  0
 11  8  1  0
 11  6  2  0
 12  6  1  0
 12  2  1  1
 12 17  1  0
 13 18  1  0
 13  5  2  3
 15  5  1  0
 15 14  1  0
 16  3  1  0
 16  1  1  0
 17 10  1  0
 19  9  1  0
 20 13  1  0
 21 14  1  0
 21  6  1  0
M  END
$$$$

     RDKit          3D

 34 40  0  0  0  0  0  0  0  0999 V2000
    9.1860  -34.9150  -33.2070 C   0  0  0  0  0  0  0  0  0  0  0  0
    5.3710  -34.9150  -36.0480 C   0  0  0  0  0  0  0  0  0  0  0  0
    5.3580  -34.9350  -37.5640 C   0  0  0  0  0  0  0  0  0  0  0  0
   12.2410  -33.7430  -33.1630 C   0  0  0  0  0  0  0  0  0  0  0  0
    7.2310  -31.3570  -30.8950 N   0  0  0  0  0  0  0  0  0  0  0  0
    4.3030  -33.9630  -35.5930 C   0  0  0  0  0  0  0  0  0  0  0  0
    9.5240  -35.6180  -35.4940 C   0  0  0  0  0  0  0  0  0  0  0  0
    9.8300  -37.1650  -33.6680 C   0  0  0  0  0  0  0  0  0  0  0  0
    9.5830  -36.9110  -35.0410 C   0  0  0  0  0  0  0  0  0  0  0  0
   14.3510  -33.2910  -33.9650 O   0  0  0  0  0  0  0  0  0  0  0  0
    6.2140  -31.7050  -31.6770 C   0  0  0  0  0  0  0  0  0  0  0  0
   12.3280  -32.7850  -31.1720 C   0  0  1  0  0  0  0  0  0  0  0  0
    6.4640  -34.6060  -33.9980 C   0  0  0  0  0  0  0  0  0  0  0  0
    5.8510  -33.4590  -33.7890 C   0  0  0  0  0  0  0  0  0  0  0  0
   10.2710  -38.4740  -33.3060 C   0  0  0  0  0  0  0  0  0  0  0  0
    4.7910  -31.2070  -31.3380 C   0  0  0  0  0  0  0  0  0  0  0  0
    9.3710  -34.5540  -34.6320 C   0  0  0  0  0  0  0  0  0  0  0  0
   11.3560  -33.1770  -32.1390 C   0  0  1  0  0  0  0  0  0  0  0  0
   11.4080  -33.8000  -30.9340 C   0  0  2  0  0  0  0  0  0  0  0  0
    2.9830  -34.7340  -37.5550 C   0  0  1  0  0  0  0  0  0  0  0  0
    3.1330  -33.9470  -36.3870 C   0  0  0  0  0  0  0  0  0  0  0  0
   13.5160  -33.3890  -32.9770 C   0  0  1  0  0  0  0  0  0  0  0  0
   13.7000  -32.7710  -31.7990 C   0  0  0  0  0  0  0  0  0  0  0  0
    2.1880  -34.1390  -38.7050 C   0  0  0  0  0  0  0  0  0  0  0  0
    4.2670  -34.6680  -38.2190 O   0  0  0  0  0  0  0  0  0  0  0  0
    4.7250  -33.1660  -34.5350 C   0  0  0  0  0  0  0  0  0  0  0  0
   10.0890  -33.4910  -31.3170 C   0  0  2  0  0  0  0  0  0  0  0  0
    7.8920  -32.9160  -32.2700 N   0  0  0  0  0  0  0  0  0  0  0  0
   15.5840  -33.8630  -33.7290 C   0  0  0  0  0  0  0  0  0  0  0  0
    9.0410  -33.7200  -32.3070 C   0  0  2  0  0  0  0  0  0  0  0  0
    6.1830  -35.4020  -35.1690 C   0  0  0  0  0  0  0  0  0  0  0  0
    9.6220  -36.1110  -32.7400 C   0  0  0  0  0  0  0  0  0  0  0  0
    6.4790  -32.6720  -32.7600 C   0  0  0  0  0  0  0  0  0  0  0  0
    8.2490  -32.0270  -31.3520 N   0  0  0  0  0  0  0  0  0  0  0  0
  1 32  1  0
  1 30  1  0
  2  6  2  0
  2 31  1  0
  3  2  1  0
  4 22  1  0
  6 26  1  0
  7  9  2  0
  7 17  1  0
  8 15  1  0
  8 32  2  0
  9  8  1  0
 10 29  1  0
 22 10  1  6
 11 16  1  0
 11  5  1  0
 12 23  1  6
 19 12  1  1
 13 14  1  0
 14 33  1  0
 17  1  2  0
 18  4  1  1
 18 27  1  0
 18 12  1  0
 18 19  1  0
 20 21  1  0
 21  6  1  0
 22 23  1  0
 20 24  1  6
 25  3  1  0
 25 20  1  0
 26 14  2  0
 27 19  1  0
 28 34  1  0
 30 28  1  1
 27 30  1  6
 31 13  2  0
 33 28  1  0
 33 11  2  0
 34  5  1  0
M  END
$$$$

     RDKit          3D

 26 30  0  0  0  0  0  0  0  0999 V2000
   10.3050  -34.6440  -33.7620 O   0  0  0  0  0  0  0  0  0  0  0  0
   11.8650  -32.8840  -28.8080 C   0  0  1  0  0  0  0  0  0  0  0  0
    6.5370  -32.0460  -31.8230 C   0  0  0  0  0  0  0  0  0  0  0  0
   12.7730  -33.1830  -29.9170 C   0  0  0  0  0  0  0  0  0  0  0  0
    6.1970  -31.2270  -31.0800 O   0  0  0  0  0  0  0  0  0  0  0  0
    8.7300  -31.9490  -30.6540 O   0  0  0  0  0  0  0  0  0  0  0  0
   12.5080  -32.1210  -27.6600 O   0  0  0  0  0  0  0  0  0  0  0  0
    3.9430  -34.4030  -37.1230 C   0  0  0  0  0  0  0  0  0  0  0  0
    7.9990  -32.3730  -31.7280 C   0  0  0  0  0  0  0  0  0  0  0  0
    5.6960  -34.6180  -34.8570 N   0  0  0  0  0  0  0  0  0  0  0  0
    4.8990  -35.6420  -36.8900 C   0  0  1  0  0  0  0  0  0  0  0  0
    9.1290  -34.2570  -33.4770 C   0  0  0  0  0  0  0  0  0  0  0  0
   10.3240  -33.4840  -31.2910 C   0  0  0  0  0  0  0  0  0  0  0  0
    9.0130  -33.3830  -32.2030 C   0  0  0  0  0  0  0  0  0  0  0  0
   12.2780  -33.3270  -31.1710 C   0  0  0  0  0  0  0  0  0  0  0  0
    5.4140  -32.6440  -32.5100 C   0  0  0  0  0  0  0  0  0  0  0  0
    6.2380  -33.0890  -33.4910 O   0  0  0  0  0  0  0  0  0  0  0  0
    7.3130  -35.6690  -36.2940 C   0  0  0  0  0  0  0  0  0  0  0  0
    5.9540  -35.3110  -35.9400 C   0  0  0  0  0  0  0  0  0  0  0  0
    6.7340  -34.2780  -34.0890 C   0  0  0  0  0  0  0  0  0  0  0  0
    9.8570  -32.4450  -30.4110 C   0  0  0  0  0  0  0  0  0  0  0  0
   10.5900  -32.2330  -29.2230 C   0  0  0  0  0  0  0  0  0  0  0  0
    3.3010  -35.5880  -36.5270 C   0  0  0  0  0  0  0  0  0  0  0  0
   11.1590  -34.2870  -31.3620 C   0  0  0  0  0  0  0  0  0  0  0  0
    8.3280  -35.4580  -35.3740 C   0  0  0  0  0  0  0  0  0  0  0  0
    8.0270  -34.5980  -34.2960 C   0  0  0  0  0  0  0  0  0  0  0  0
  1 12  2  0
  2  7  1  1
  3  9  1  0
  3  5  2  0
  4  2  1  0
  6 21  1  0
  8 11  1  0
  8 23  1  0
  9  6  1  0
 10 20  2  0
 11 23  1  0
 11 19  1  1
 12 14  1  0
 13 21  2  0
 14  9  2  0
 14 13  1  0
 15  4  1  0
 16  3  1  0
 17 16  1  0
 18 19  2  0
 18 25  1  0
 19 10  1  0
 20 17  1  0
 21 22  1  0
 22  2  1  0
 24 13  1  0
 24 15  1  0
 25 26  2  0
 26 20  1  0
 26 12  1  0
M  END
$$$$

     RDKit          3D

 35 40  0  0  0  0  0  0  0  0999 V2000
    9.3470  -36.0430  -34.1130 C   0  0  2  0  0  0  0  0  0  0  0  0
   11.6890  -34.3670  -31.5360 C   0  0  2  0  0  0  0  0  0  0  0  0
    5.5220  -34.8730  -36.9680 C   0  0  0  0  0  0  0  0  0  0  0  0
    6.6440  -35.1100  -35.0800 C   0  0  0  0  0  0  0  0  0  0  0  0
    3.2620  -34.4780  -36.7020 C   0  0  0  0  0  0  0  0  0  0  0  0
   10.0370  -34.0710  -32.8910 C   0  0  0  0  0  0  0  0  0  0  0  0
    3.6060  -31.3320  -30.7070 C   0  0  0  0  0  0  0  0  0  0  0  0
    5.0060  -31.3460  -30.8150 C   0  0  0  0  0  0  0  0  0  0  0  0
    4.8730  -32.8090  -32.5750 C   0  0  0  0  0  0  0  0  0  0  0  0
    9.3750  -37.3370  -33.4780 C   0  0  0  0  0  0  0  0  0  0  0  0
   11.3060  -35.0150  -30.3410 O   0  0  0  0  0  0  0  0  0  0  0  0
    8.4270  -35.2240  -34.4780 C   0  0  1  0  0  0  0  0  0  0  0  0
    5.5830  -34.7650  -35.5990 C   0  0  0  0  0  0  0  0  0  0  0  0
    2.9130  -31.9540  -31.4410 C   0  0  0  0  0  0  0  0  0  0  0  0
    7.5480  -35.8580  -35.6020 O   0  0  0  0  0  0  0  0  0  0  0  0
   10.5950  -35.7780  -34.8250 C   0  0  0  0  0  0  0  0  0  0  0  0
    4.7710  -34.0180  -34.7980 C   0  0  0  0  0  0  0  0  0  0  0  0
   11.7280  -35.3420  -34.0390 C   0  0  0  0  0  0  0  0  0  0  0  0
   12.5050  -33.2380  -29.3290 C   0  0  2  0  0  0  0  0  0  0  0  0
   13.0040  -32.7620  -28.0390 C   0  0  0  0  0  0  0  0  0  0  0  0
    4.2850  -34.6560  -37.5450 C   0  0  0  0  0  0  0  0  0  0  0  0
   12.0920  -31.9880  -27.3520 O   0  0  0  0  0  0  0  0  0  0  0  0
    3.4900  -32.8390  -32.3470 C   0  0  0  0  0  0  0  0  0  0  0  0
    7.3120  -34.8810  -33.7250 C   0  0  1  0  0  0  0  0  0  0  0  0
   11.1050  -33.0350  -31.3570 C   0  0  2  0  0  0  0  0  0  0  0  0
   11.0600  -34.8090  -32.8330 C   0  0  0  0  0  0  0  0  0  0  0  0
    4.1720  -34.4880  -38.8940 F   0  0  0  0  0  0  0  0  0  0  0  0
    5.4540  -33.5000  -33.6730 C   0  0  2  0  0  0  0  0  0  0  0  0
    3.4970  -33.9440  -35.3450 C   0  0  0  0  0  0  0  0  0  0  0  0
    5.6950  -32.0810  -31.7950 C   0  0  0  0  0  0  0  0  0  0  0  0
    2.0110  -34.8720  -37.2970 O   0  0  0  0  0  0  0  0  0  0  0  0
   11.2290  -32.5780  -29.9330 C   0  0  0  0  0  0  0  0  0  0  0  0
    6.8360  -33.8160  -33.3680 N   0  0  0  0  0  0  0  0  0  0  0  0
   12.1950  -34.7470  -29.2430 C   0  0  0  0  0  0  0  0  0  0  0  0
    9.6310  -33.2880  -31.9100 C   0  0  0  0  0  0  0  0  0  0  0  0
  1 10  1  6
  2 26  1  0
  2 25  1  0
  2 11  1  1
  3 13  2  0
  4 15  1  0
  4 24  1  0
  5 29  1  0
  6 26  2  0
  6 35  1  0
  8  7  2  0
  9 23  1  0
  9 30  2  0
 11 34  1  0
 12  1  1  0
 12 24  1  0
 13  4  1  0
 13 17  1  0
 14  7  1  0
 12 15  1  6
 16  1  1  0
 16 18  1  0
 17 28  1  0
 18 26  1  0
 19 34  1  0
 19 20  1  1
 20 22  1  0
 21  3  1  0
 21  5  2  0
 23 14  2  0
 24 33  1  6
 25 35  1  1
 25 32  1  0
 27 21  1  0
 28 33  1  0
 28  9  1  1
 29 17  2  0
 30  8  1  0
 31  5  1  0
 32 19  1  0
M  END
$$$$

     RDKit          3D

 17 20  0  0  0  0  0  0  0  0999 V2000
    8.1240  -32.5430  -31.6190 C   0  0  0  0  0  0  0  0  0  0  0  0
    6.4050  -34.2000  -34.4510 C   0  0  0  0  0  0  0  0  0  0  0  0
    7.4500  -31.7020  -30.9830 O   0  0  0  0  0  0  0  0  0  0  0  0
   10.3230  -32.5040  -30.2820 C   0  0  0  0  0  0  0  0  0  0  0  0
   11.9070  -33.9310  -31.1110 C   0  0  0  0  0  0  0  0  0  0  0  0
   11.5580  -33.0280  -30.1030 C   0  0  0  0  0  0  0  0  0  0  0  0
    6.4990  -33.3050  -33.3750 C   0  0  0  0  0  0  0  0  0  0  0  0
    7.1940  -35.5060  -36.1270 C   0  0  0  0  0  0  0  0  0  0  0  0
   11.1050  -34.4930  -31.9690 C   0  0  0  0  0  0  0  0  0  0  0  0
    8.7340  -34.2100  -33.1020 C   0  0  0  0  0  0  0  0  0  0  0  0
    5.5810  -35.4390  -36.4790 S   0  0  0  0  0  0  0  0  0  0  0  0
    7.6340  -33.2710  -32.7320 C   0  0  0  0  0  0  0  0  0  0  0  0
    9.4780  -32.8910  -31.2660 C   0  0  0  0  0  0  0  0  0  0  0  0
    8.6700  -34.9800  -34.1460 C   0  0  0  0  0  0  0  0  0  0  0  0
    7.4570  -34.9530  -34.9240 C   0  0  0  0  0  0  0  0  0  0  0  0
    9.8010  -33.9300  -32.0860 C   0  0  0  0  0  0  0  0  0  0  0  0
    5.2590  -34.4150  -35.1980 N   0  0  0  0  0  0  0  0  0  0  0  0
  1 13  1  0
  1  3  2  0
  2  7  2  0
  4  6  1  0
  5  6  2  0
  7 12  1  0
  8 15  1  0
  9  5  1  0
 10 12  2  0
 10 16  1  0
 11  8  1  0
 11 17  1  0
 12  1  1  0
 13  4  2  0
 14 10  1  0
 15  2  1  0
 15 14  2  0
 16  9  2  0
 16 13  1  0
 17  2  1  0
M  END
$$$$

     RDKit          3D

 33 38  0  0  0  0  0  0  0  0999 V2000
   11.0410  -32.9730  -29.9150 O   0  0  0  0  0  0  0  0  0  0  0  0
    7.7350  -35.7290  -35.6240 C   0  0  0  0  0  0  0  0  0  0  0  0
    5.4650  -33.2510  -33.5730 C   0  0  1  0  0  0  0  0  0  0  0  0
    3.7200  -31.8210  -30.7180 C   0  0  0  0  0  0  0  0  0  0  0  0
   10.0330  -34.3430  -33.2960 C   0  0  2  0  0  0  0  0  0  0  0  0
   12.8270  -33.3370  -28.6780 O   0  0  0  0  0  0  0  0  0  0  0  0
   12.3530  -34.6590  -33.7610 O   0  0  0  0  0  0  0  0  0  0  0  0
   11.7990  -33.5770  -31.8510 C   0  0  2  0  0  0  0  0  0  0  0  0
   10.0700  -35.6280  -36.3270 C   0  0  0  0  0  0  0  0  0  0  0  0
    4.6790  -32.2550  -31.8730 C   0  0  0  0  0  0  0  0  0  0  0  0
    8.6430  -35.2210  -36.7300 C   0  0  0  0  0  0  0  0  0  0  0  0
   10.0450  -36.3320  -34.9590 C   0  0  0  0  0  0  0  0  0  0  0  0
    3.3070  -32.9790  -33.8100 C   0  0  0  0  0  0  0  0  0  0  0  0
    8.5810  -32.6090  -31.8090 C   0  0  0  0  0  0  0  0  0  0  0  0
    1.3880  -33.9960  -35.9240 O   0  0  0  0  0  0  0  0  0  0  0  0
    2.7960  -33.9350  -36.3750 S   0  0  2  0  0  0  0  0  0  0  0  0
    3.6330  -32.7420  -36.7750 O   0  0  0  0  0  0  0  0  0  0  0  0
   10.6180  -33.2240  -31.1950 C   0  0  2  0  0  0  0  0  0  0  0  0
    6.5880  -32.7760  -32.9040 N   0  0  0  0  0  0  0  0  0  0  0  0
    4.3560  -32.7600  -32.9790 N   0  0  0  0  0  0  0  0  0  0  0  0
    3.0500  -35.1990  -37.4800 C   0  0  0  0  0  0  0  0  0  0  0  0
    6.0890  -32.0900  -31.7900 C   0  0  0  0  0  0  0  0  0  0  0  0
    8.0880  -35.0410  -34.4410 O   0  0  0  0  0  0  0  0  0  0  0  0
   11.4110  -34.2320  -32.9620 C   0  0  1  0  0  0  0  0  0  0  0  0
   12.8690  -33.6300  -31.0090 C   0  0  0  0  0  0  0  0  0  0  0  0
    9.1830  -33.4770  -32.7460 C   0  0  0  0  0  0  0  0  0  0  0  0
    5.1980  -33.9850  -34.8480 C   0  0  0  0  0  0  0  0  0  0  0  0
    8.2010  -31.7720  -30.7740 C   0  0  0  0  0  0  0  0  0  0  0  0
    6.7940  -31.5690  -30.7960 N   0  0  0  0  0  0  0  0  0  0  0  0
   12.3120  -33.3270  -29.7500 C   0  0  0  0  0  0  0  0  0  0  0  0
    3.7320  -34.0930  -34.6870 C   0  0  1  0  0  0  0  0  0  0  0  0
    9.4370  -35.3710  -33.9890 C   0  0  2  0  0  0  0  0  0  0  0  0
    9.5560  -33.0310  -31.6450 C   0  0  2  0  0  0  0  0  0  0  0  0
  1 30  1  0
  2 23  1  0
  3 27  1  6
  3 20  1  0
  3 19  1  0
  5 32  1  0
  5 24  1  0
  5 26  1  1
  8 18  1  0
  8 25  1  1
  9 12  1  0
 10 22  1  0
 10  4  1  0
 11  9  1  0
 11  2  1  0
 32 12  1  6
 33 14  1  6
 14 28  1  0
 16 15  2  0
 16 31  1  0
 17 16  2  0
 18  1  1  6
 19 22  2  0
 20 13  1  0
 20 10  1  0
 16 21  1  6
 22 29  1  0
 23 32  1  0
 24  7  1  6
 24  8  1  0
 25 30  1  0
 26 14  1  0
 26 33  1  0
 31 27  1  6
 29 28  1  0
 30  6  2  0
 31 13  1  0
 33 18  1  0
M  END
$$$$

     RDKit          3D

 33 37  0  0  0  0  0  0  0  0999 V2000
    8.5430  -34.3090  -33.1780 C   0  0  2  0  0  0  0  0  0  0  0  0
   11.6710  -32.4800  -28.3600 C   0  0  0  0  0  0  0  0  0  0  0  0
   10.5610  -34.1210  -32.0340 N   0  0  0  0  0  0  0  0  0  0  0  0
    7.7180  -32.0100  -32.0010 C   0  0  0  0  0  0  0  0  0  0  0  0
    5.3950  -31.6750  -31.4530 C   0  0  0  0  0  0  0  0  0  0  0  0
    4.8060  -32.5120  -32.3590 C   0  0  0  0  0  0  0  0  0  0  0  0
    3.5050  -33.6560  -36.4260 O   0  0  0  0  0  0  0  0  0  0  0  0
    8.7960  -37.7600  -33.8280 C   0  0  0  0  0  0  0  0  0  0  0  0
   11.7290  -32.1560  -27.4460 N   0  0  0  0  0  0  0  0  0  0  0  0
    3.5600  -32.7810  -32.6600 N   0  0  0  0  0  0  0  0  0  0  0  0
   11.5660  -33.1240  -29.6370 C   0  0  0  0  0  0  0  0  0  0  0  0
    7.1950  -33.0290  -32.7690 C   0  0  2  0  0  0  0  0  0  0  0  0
    9.8120  -38.6570  -33.8410 C   0  0  0  0  0  0  0  0  0  0  0  0
    4.5270  -33.7110  -37.5650 C   0  0  2  0  0  0  0  0  0  0  0  0
    7.4110  -36.1480  -34.3600 O   0  0  0  0  0  0  0  0  0  0  0  0
    3.2420  -34.4970  -37.3620 C   0  0  0  0  0  0  0  0  0  0  0  0
    5.3590  -35.8540  -36.5900 C   0  0  0  0  0  0  0  0  0  0  0  0
    7.3230  -35.0170  -34.0110 C   0  0  2  0  0  0  0  0  0  0  0  0
   11.4260  -37.0960  -34.4210 C   0  0  0  0  0  0  0  0  0  0  0  0
   10.9360  -36.0660  -34.1950 C   0  0  0  0  0  0  0  0  0  0  0  0
    6.6130  -34.6470  -35.1380 C   0  0  0  0  0  0  0  0  0  0  0  0
    9.5650  -33.6860  -32.1520 C   0  0  2  0  0  0  0  0  0  0  0  0
   10.9740  -38.1570  -34.0600 C   0  0  0  0  0  0  0  0  0  0  0  0
   11.3290  -34.0250  -31.6370 C   0  0  0  0  0  0  0  0  0  0  0  0
    5.6410  -34.9480  -36.0290 C   0  0  1  0  0  0  0  0  0  0  0  0
   12.4150  -33.9370  -30.2920 N   0  0  0  0  0  0  0  0  0  0  0  0
    6.7580  -31.5200  -31.2080 C   0  0  0  0  0  0  0  0  0  0  0  0
    5.9850  -33.1060  -33.0040 N   0  0  0  0  0  0  0  0  0  0  0  0
    9.5660  -35.6450  -33.7760 C   0  0  2  0  0  0  0  0  0  0  0  0
    9.5320  -32.9920  -30.9410 C   0  0  0  0  0  0  0  0  0  0  0  0
    5.7190  -34.6830  -37.5710 C   0  0  0  0  0  0  0  0  0  0  0  0
    8.6120  -36.5580  -34.2670 C   0  0  1  0  0  0  0  0  0  0  0  0
   10.3550  -32.9210  -30.2750 C   0  0  0  0  0  0  0  0  0  0  0  0
  1 12  1  6
  1 22  1  0
  2  9  3  0
  3 24  1  0
  4 27  1  0
  5 27  2  0
  6  5  1  0
 10  6  2  0
 11  2  1  0
 12  4  1  1
 13  8  1  0
 14 31  1  1
 14 16  1  0
 14  7  1  0
 15 32  1  0
 15 18  1  0
 16  7  1  0
 18 21  1  6
 18  1  1  0
 19 20  1  0
 19 23  1  0
 22  3  1  1
 22 30  1  0
 23 13  1  0
 24 26  1  0
 25 17  1  6
 25 21  1  0
 26 11  1  0
 28 12  1  0
 28  6  1  0
 29 20  1  6
 29  1  1  0
 30 33  2  0
 31 25  1  0
 32  8  1  1
 32 29  1  0
 33 11  2  0
M  END
$$$$

     RDKit          3D

 27 30  0  0  0  0  0  0  0  0999 V2000
    9.9690  -31.9540  -29.1640 N   0  0  0  0  0  0  0  0  0  0  0  0
    6.8290  -34.2270  -33.7460 N   0  0  0  0  0  0  0  0  0  0  0  0
   10.8470  -34.7250  -32.2940 C   0  0  0  0  0  0  0  0  0  0  0  0
    5.6880  -35.1440  -35.4770 C   0  0  0  0  0  0  0  0  0  0  0  0
    9.8460  -32.6130  -31.4580 C   0  0  1  0  0  0  0  0  0  0  0  0
    4.9930  -31.9270  -31.6310 C   0  0  0  0  0  0  0  0  0  0  0  0
    8.8450  -31.8790  -29.9110 N   0  0  0  0  0  0  0  0  0  0  0  0
   10.3790  -36.2200  -34.2560 C   0  0  0  0  0  0  0  0  0  0  0  0
   10.6160  -32.6470  -30.2210 C   0  0  0  0  0  0  0  0  0  0  0  0
    7.4060  -32.0150  -31.5760 C   0  0  0  0  0  0  0  0  0  0  0  0
    6.2720  -33.0580  -33.1510 C   0  0  0  0  0  0  0  0  0  0  0  0
    7.8510  -36.2400  -35.2400 C   0  0  1  0  0  0  0  0  0  0  0  0
    4.9210  -32.6650  -32.7620 C   0  0  0  0  0  0  0  0  0  0  0  0
    4.3570  -33.6340  -36.2460 O   0  0  0  0  0  0  0  0  0  0  0  0
    6.3300  -31.6630  -31.1120 C   0  0  0  0  0  0  0  0  0  0  0  0
    8.9620  -35.7920  -34.2600 C   0  0  2  0  0  0  0  0  0  0  0  0
    3.5320  -35.5140  -35.5900 N   0  0  0  0  0  0  0  0  0  0  0  0
    4.5420  -34.6940  -35.8230 C   0  0  0  0  0  0  0  0  0  0  0  0
   11.7690  -33.1170  -29.8570 C   0  0  0  0  0  0  0  0  0  0  0  0
    6.4250  -35.7770  -35.9830 C   0  0  0  0  0  0  0  0  0  0  0  0
   11.0870  -34.9480  -33.7180 C   0  0  0  0  0  0  0  0  0  0  0  0
   10.6450  -33.3370  -32.4290 C   0  0  1  0  0  0  0  0  0  0  0  0
    7.4380  -32.3280  -32.9290 N   0  0  0  0  0  0  0  0  0  0  0  0
    6.5280  -34.8660  -34.5540 C   0  0  0  0  0  0  0  0  0  0  0  0
    8.7210  -35.1370  -35.5940 C   0  0  0  0  0  0  0  0  0  0  0  0
   11.7660  -33.0120  -32.5320 C   0  0  0  0  0  0  0  0  0  0  0  0
    8.6620  -32.1670  -31.1170 C   0  0  0  0  0  0  0  0  0  0  0  0
  2 11  2  3
  4 24  2  3
  5 27  1  0
  5  9  1  1
  6 15  2  0
  7  1  1  0
  8 21  1  0
  9 19  2  0
  9  1  1  0
 10 27  2  3
 10 15  1  0
 11 23  1  0
 11 13  1  0
 12 20  1  1
 12 16  1  0
 13  6  1  0
 14 18  2  0
 16 25  1  6
 16  8  1  0
 18 17  1  0
 18  4  1  0
 20  4  1  0
 21  3  1  0
 22 26  1  1
 22  3  1  0
 22  5  1  0
 23 10  1  0
 24  2  1  0
 25 12  1  0
 27  7  1  0
M  END
$$$$

     RDKit          3D

 22 26  0  0  0  0  0  0  0  0999 V2000
    5.8980  -32.2120  -32.7490 C   0  0  0  0  0  0  0  0  0  0  0  0
    4.4350  -35.1080  -37.1910 C   0  0  0  0  0  0  0  0  0  0  0  0
    7.2410  -35.0250  -34.8240 C   0  0  1  0  0  0  0  0  0  0  0  0
   10.7040  -33.6450  -32.0250 C   0  0  0  0  0  0  0  0  0  0  0  0
   11.4840  -33.4890  -29.9570 O   0  0  0  0  0  0  0  0  0  0  0  0
    7.9040  -34.4470  -33.8030 C   0  0  2  0  0  0  0  0  0  0  0  0
   11.2310  -34.7680  -33.9750 C   0  0  0  0  0  0  0  0  0  0  0  0
    6.2970  -31.7900  -31.5650 C   0  0  0  0  0  0  0  0  0  0  0  0
    8.5510  -35.2510  -34.6570 C   0  0  0  0  0  0  0  0  0  0  0  0
    7.0240  -32.5920  -33.5380 C   0  0  0  0  0  0  0  0  0  0  0  0
    5.7230  -34.4370  -34.8150 C   0  0  0  0  0  0  0  0  0  0  0  0
   12.9980  -33.6200  -31.6200 O   0  0  0  0  0  0  0  0  0  0  0  0
    6.9300  -35.3000  -34.6570 C   0  0  0  0  0  0  0  0  0  0  0  0
    7.9850  -33.4230  -33.0470 C   0  0  2  0  0  0  0  0  0  0  0  0
   10.3180  -32.6360  -29.9930 C   0  0  0  0  0  0  0  0  0  0  0  0
   11.7940  -33.6080  -31.2650 C   0  0  0  0  0  0  0  0  0  0  0  0
    7.6000  -32.0330  -31.0100 C   0  0  0  0  0  0  0  0  0  0  0  0
    5.4080  -34.7610  -36.1630 C   0  0  0  0  0  0  0  0  0  0  0  0
    9.0340  -34.1570  -33.5500 C   0  0  1  0  0  0  0  0  0  0  0  0
    9.7050  -33.0470  -31.2670 C   0  0  0  0  0  0  0  0  0  0  0  0
    8.4570  -32.7870  -31.7630 C   0  0  1  0  0  0  0  0  0  0  0  0
   10.3650  -34.1340  -33.2160 C   0  0  0  0  0  0  0  0  0  0  0  0
  1  8  1  0
  2 18  1  0
  3 13  1  1
  3  9  1  0
  3  6  1  0
  4 20  2  0
  4 16  1  0
  6  9  1  1
  6 19  1  0
  6 14  1  0
  7 22  2  0
  8 17  2  0
 10  1  1  0
 11 13  1  0
 12 16  2  0
 14 10  1  6
 14 21  1  0
 15  5  1  0
 16  5  1  0
 18 11  1  0
 19 22  1  1
 19 14  1  0
 20 15  1  0
 21 20  1  0
 21 17  1  1
 22  4  1  0
M  END
$$$$

     RDKit          3D

 20 22  0  0  0  0  0  0  0  0999 V2000
   11.4420  -33.0610  -30.0530 C   0  0  0  0  0  0  0  0  0  0  0  0
    6.1160  -33.1960  -33.3270 C   0  0  0  0  0  0  0  0  0  0  0  0
    7.3210  -34.9950  -34.5380 C   0  0  0  0  0  0  0  0  0  0  0  0
    8.3630  -34.5520  -33.8540 C   0  0  0  0  0  0  0  0  0  0  0  0
    9.4410  -35.1890  -34.2370 C   0  0  0  0  0  0  0  0  0  0  0  0
    3.9960  -35.6910  -36.7240 C   0  0  0  0  0  0  0  0  0  0  0  0
   11.9940  -32.6910  -29.1020 C   0  0  0  0  0  0  0  0  0  0  0  0
   10.9380  -33.6560  -32.2540 C   0  0  0  0  0  0  0  0  0  0  0  0
    4.9990  -34.7360  -34.9960 N   0  0  0  0  0  0  0  0  0  0  0  0
   11.8160  -33.4310  -31.2480 C   0  0  0  0  0  0  0  0  0  0  0  0
   12.3740  -32.1700  -28.2450 N   0  0  0  0  0  0  0  0  0  0  0  0
    8.4370  -33.5870  -32.8280 C   0  0  1  0  0  0  0  0  0  0  0  0
    6.1690  -34.3020  -34.2260 C   0  0  2  0  0  0  0  0  0  0  0  0
    5.1530  -35.9420  -36.7690 O   0  0  0  0  0  0  0  0  0  0  0  0
    9.4310  -32.9900  -30.8870 C   0  0  0  0  0  0  0  0  0  0  0  0
    7.2250  -32.9110  -32.7150 C   0  0  0  0  0  0  0  0  0  0  0  0
    9.6060  -33.4780  -31.9910 C   0  0  0  0  0  0  0  0  0  0  0  0
   10.1420  -32.8070  -29.9850 C   0  0  0  0  0  0  0  0  0  0  0  0
    5.0070  -34.8420  -36.0900 C   0  0  1  0  0  0  0  0  0  0  0  0
    7.4560  -35.8550  -35.2250 O   0  0  0  0  0  0  0  0  0  0  0  0
  1 18  2  0
  1  7  1  0
  2 16  2  0
  3 13  1  0
  3  4  1  0
  4 12  1  0
  5  4  2  0
  6 19  1  0
  7 11  3  0
  8 17  1  0
  8 10  2  0
 10  1  1  0
 12 16  1  0
 12 17  1  1
 13  9  1  6
 13  2  1  0
 14  6  1  0
 14 19  1  0
 15 18  1  0
 17 15  2  0
 19  9  1  1
 20  3  2  0
M  END
$$$$

     RDKit          3D

 34 40  0  0  0  0  0  0  0  0999 V2000
    6.5240  -30.9210  -31.7870 C   0  0  0  0  0  0  0  0  0  0  0  0
    6.5780  -34.8820  -35.4660 C   0  0  0  0  0  0  0  0  0  0  0  0
    5.3590  -33.4970  -34.1390 N   0  0  0  0  0  0  0  0  0  0  0  0
    9.8460  -32.7840  -30.7020 C   0  0  0  0  0  0  0  0  0  0  0  0
    3.1840  -32.4850  -33.8390 O   0  0  0  0  0  0  0  0  0  0  0  0
   12.5220  -34.6820  -32.4260 F   0  0  0  0  0  0  0  0  0  0  0  0
   10.8150  -32.2970  -29.1860 C   0  0  0  0  0  0  0  0  0  0  0  0
   10.8420  -32.6160  -29.7130 C   0  0  0  0  0  0  0  0  0  0  0  0
    7.1400  -32.2320  -31.5220 C   0  0  1  0  0  0  0  0  0  0  0  0
   13.4770  -33.7910  -30.9050 F   0  0  0  0  0  0  0  0  0  0  0  0
    9.5710  -34.3200  -32.1950 C   0  0  2  0  0  0  0  0  0  0  0  0
    9.2390  -34.3350  -33.3000 C   0  0  1  0  0  0  0  0  0  0  0  0
    7.9090  -34.3260  -33.8330 C   0  0  1  0  0  0  0  0  0  0  0  0
    8.4370  -33.7930  -32.8310 C   0  0  1  0  0  0  0  0  0  0  0  0
   10.5950  -33.0490  -30.4960 N   0  0  0  0  0  0  0  0  0  0  0  0
   11.4800  -33.8620  -31.1040 C   0  0  0  0  0  0  0  0  0  0  0  0
   10.1150  -33.5660  -31.5260 C   0  0  0  0  0  0  0  0  0  0  0  0
   12.4230  -32.6990  -32.3990 F   0  0  0  0  0  0  0  0  0  0  0  0
    8.5680  -35.7880  -34.2560 C   0  0  2  0  0  0  0  0  0  0  0  0
    2.2020  -33.8600  -35.8350 O   0  0  0  0  0  0  0  0  0  0  0  0
    3.7540  -34.8810  -37.6120 O   0  0  0  0  0  0  0  0  0  0  0  0
   10.2090  -35.6100  -33.7780 C   0  0  2  0  0  0  0  0  0  0  0  0
    4.4080  -34.6200  -36.4720 C   0  0  0  0  0  0  0  0  0  0  0  0
   10.3700  -36.8250  -34.4190 C   0  0  0  0  0  0  0  0  0  0  0  0
    5.6560  -32.0940  -31.2630 C   0  0  0  0  0  0  0  0  0  0  0  0
    3.5350  -33.9950  -35.5330 N   0  0  0  0  0  0  0  0  0  0  0  0
   12.4370  -33.7270  -31.7120 C   0  0  2  0  0  0  0  0  0  0  0  0
    4.0570  -33.3750  -34.5440 C   0  0  0  0  0  0  0  0  0  0  0  0
    9.2260  -37.1000  -34.7670 C   0  0  0  0  0  0  0  0  0  0  0  0
    6.5350  -34.0600  -34.0530 C   0  0  0  0  0  0  0  0  0  0  0  0
    8.5850  -35.0730  -34.3400 O   0  0  0  0  0  0  0  0  0  0  0  0
    7.5510  -33.0950  -32.2970 O   0  0  0  0  0  0  0  0  0  0  0  0
    9.9950  -34.9510  -33.1140 C   0  0  2  0  0  0  0  0  0  0  0  0
    5.8600  -34.7010  -36.1000 C   0  0  0  0  0  0  0  0  0  0  0  0
  1  9  1  0
  1 25  1  0
  2 30  2  0
  3 30  1  0
  4 15  1  0
 27  6  1  6
  8  7  3  0
  9 25  1  0
 11 17  1  6
 12 33  1  0
 12 14  1  0
 12 11  1  0
 12 13  1  6
 13 14  1  0
 14 32  1  6
 14 11  1  0
 15  8  1  0
 16 15  1  0
 17  4  1  0
 18 27  1  0
 19 22  1  0
 20 26  1  0
 21 23  2  0
 33 22  1  1
 23 34  1  0
 23 26  1  0
 22 24  1  1
 26 28  1  0
 27 16  1  0
 27 10  1  0
 28  3  1  0
 28  5  2  0
 29 24  1  0
 19 29  1  6
 13 30  1  6
 31 19  1  0
 31 13  1  0
  9 32  1  6
 33 11  1  0
 34  2  1  0
M  END
$$$$

     RDKit          3D

 22 24  0  0  0  0  0  0  0  0999 V2000
    6.8570  -34.2650  -34.0020 C   0  0  0  0  0  0  0  0  0  0  0  0
   10.4880  -32.2280  -30.0310 C   0  0  0  0  0  0  0  0  0  0  0  0
    5.9960  -34.8090  -34.8620 C   0  0  0  0  0  0  0  0  0  0  0  0
    7.5220  -36.5010  -35.3190 C   0  0  0  0  0  0  0  0  0  0  0  0
   11.3440  -31.9370  -28.9760 C   0  0  0  0  0  0  0  0  0  0  0  0
   12.8640  -33.6620  -32.2500 C   0  0  0  0  0  0  0  0  0  0  0  0
   11.7750  -35.5410  -34.8230 N   0  0  0  0  0  0  0  0  0  0  0  0
    8.3770  -35.9390  -34.4450 C   0  0  0  0  0  0  0  0  0  0  0  0
    9.5850  -37.0020  -32.7570 F   0  0  0  0  0  0  0  0  0  0  0  0
   10.8840  -31.2220  -27.9650 F   0  0  0  0  0  0  0  0  0  0  0  0
   12.3160  -33.3010  -31.0180 C   0  0  0  0  0  0  0  0  0  0  0  0
   12.5460  -32.4520  -29.0900 C   0  0  0  0  0  0  0  0  0  0  0  0
   10.9550  -33.0140  -31.0200 C   0  0  0  0  0  0  0  0  0  0  0  0
    6.2860  -35.9420  -35.5210 C   0  0  0  0  0  0  0  0  0  0  0  0
   12.2390  -34.0690  -33.2610 C   0  0  0  0  0  0  0  0  0  0  0  0
   10.9330  -34.4800  -33.3130 C   0  0  0  0  0  0  0  0  0  0  0  0
    9.6210  -36.6090  -34.0620 C   0  0  2  0  0  0  0  0  0  0  0  0
   13.1190  -33.1030  -29.9690 C   0  0  0  0  0  0  0  0  0  0  0  0
    8.1260  -34.8000  -33.8690 C   0  0  0  0  0  0  0  0  0  0  0  0
   10.7150  -35.5250  -34.0820 C   0  0  2  0  0  0  0  0  0  0  0  0
   14.1180  -33.5180  -32.0270 O   0  0  0  0  0  0  0  0  0  0  0  0
   12.7360  -34.6050  -34.3860 N   0  0  0  0  0  0  0  0  0  0  0  0
  1 19  2  0
  2  5  2  0
  3  1  1  0
  4  8  2  0
  5 10  1  0
  6 21  1  0
  6 11  1  0
  7 22  1  0
  7 20  1  0
  8 17  1  0
  8 19  1  0
 11 18  1  0
 12  5  1  0
 13 11  2  0
 13  2  1  0
 14  4  1  0
 14  3  2  0
 15  6  2  3
 16 15  1  0
 17  9  1  1
 18 12  2  0
 20 17  1  0
 20 16  1  1
 22 15  1  0
M  END
$$$$

     RDKit          3D

 30 37  0  0  0  0  0  0  0  0999 V2000
    4.1920  -34.8690  -36.4320 C   0  0  0  0  0  0  0  0  0  0  0  0
    8.0430  -34.3560  -33.5180 C   0  0  2  0  0  0  0  0  0  0  0  0
    7.9880  -35.5570  -34.1690 C   0  0  2  0  0  0  0  0  0  0  0  0
    5.9910  -34.1050  -34.3550 C   0  0  0  0  0  0  0  0  0  0  0  0
   10.9430  -37.7580  -34.3110 C   0  0  0  0  0  0  0  0  0  0  0  0
    9.8090  -34.3420  -32.1090 C   0  0  2  0  0  0  0  0  0  0  0  0
    5.2820  -35.2270  -36.2920 O   0  0  0  0  0  0  0  0  0  0  0  0
   11.7140  -34.5280  -30.0070 C   0  0  2  0  0  0  0  0  0  0  0  0
    9.1790  -34.8370  -33.0020 C   0  0  1  0  0  0  0  0  0  0  0  0
    7.3340  -31.6660  -30.8460 O   0  0  0  0  0  0  0  0  0  0  0  0
   11.4570  -32.4880  -28.7400 C   0  0  0  0  0  0  0  0  0  0  0  0
   10.6060  -34.1590  -30.9200 C   0  0  2  0  0  0  0  0  0  0  0  0
    8.9280  -33.0840  -31.5330 C   0  0  2  0  0  0  0  0  0  0  0  0
    3.1240  -34.7100  -36.6580 C   0  0  0  0  0  0  0  0  0  0  0  0
    6.9430  -32.6220  -32.5240 C   0  0  2  0  0  0  0  0  0  0  0  0
    7.0980  -35.8400  -35.1410 C   0  0  0  0  0  0  0  0  0  0  0  0
    9.5590  -37.3290  -34.0180 C   0  0  0  0  0  0  0  0  0  0  0  0
   11.6700  -33.2130  -31.9960 C   0  0  0  0  0  0  0  0  0  0  0  0
    5.7220  -32.1710  -31.9720 C   0  0  0  0  0  0  0  0  0  0  0  0
    6.1410  -31.5780  -30.9820 N   0  0  0  0  0  0  0  0  0  0  0  0
    7.0660  -33.7780  -33.5280 C   0  0  0  0  0  0  0  0  0  0  0  0
   12.5920  -33.4520  -29.1820 C   0  0  0  0  0  0  0  0  0  0  0  0
    5.3580  -33.2660  -34.2030 N   0  0  0  0  0  0  0  0  0  0  0  0
   11.4210  -34.6450  -31.9040 C   0  0  1  0  0  0  0  0  0  0  0  0
    7.9290  -32.3720  -31.7090 C   0  0  1  0  0  0  0  0  0  0  0  0
    9.9020  -32.8240  -30.5950 C   0  0  0  0  0  0  0  0  0  0  0  0
   10.2530  -32.2600  -29.7040 C   0  0  0  0  0  0  0  0  0  0  0  0
    4.5730  -32.1620  -32.3940 O   0  0  0  0  0  0  0  0  0  0  0  0
    9.6550  -36.2960  -33.0520 O   0  0  0  0  0  0  0  0  0  0  0  0
    6.1690  -34.9620  -35.2530 C   0  0  2  0  0  0  0  0  0  0  0  0
  1  7  1  0
  2  9  1  0
  3  2  1  0
  3  9  1  0
  4 23  2  0
  4 21  1  0
  5 17  1  0
  6 24  1  0
  6 13  1  6
  6 12  1  0
 30  7  1  1
  8 22  1  6
  9  6  1  0
 12 26  1  1
 12  8  1  0
 13 26  1  6
 14  1  3  0
 15 19  1  0
 15 25  1  0
  3 16  1  6
 17 29  1  0
 24 18  1  6
 19 20  1  0
 20 10  1  0
  2 21  1  1
 15 21  1  1
 22 11  1  0
 24 12  1  0
 24  8  1  0
 25 13  1  0
 25 10  1  1
 26 27  2  0
 27 11  1  0
 28 19  2  0
  9 29  1  6
 30 16  1  0
 30  4  1  0
M  END
$$$$

     RDKit          3D

 16 18  0  0  0  0  0  0  0  0999 V2000
    6.4050  -33.4040  -33.3060 C   0  0  0  0  0  0  0  0  0  0  0  0
    9.6680  -35.0040  -33.7950 C   0  0  0  0  0  0  0  0  0  0  0  0
    7.9330  -34.9270  -34.2990 C   0  0  2  0  0  0  0  0  0  0  0  0
    6.0600  -32.5360  -32.3350 O   0  0  0  0  0  0  0  0  0  0  0  0
    9.2080  -35.1650  -34.5120 O   0  0  0  0  0  0  0  0  0  0  0  0
    8.4630  -32.7130  -31.5650 C   0  0  0  0  0  0  0  0  0  0  0  0
    5.3950  -33.6620  -34.1800 C   0  0  0  0  0  0  0  0  0  0  0  0
    9.7230  -34.1540  -32.6270 C   0  0  0  0  0  0  0  0  0  0  0  0
    5.0630  -35.2180  -35.7160 C   0  0  0  0  0  0  0  0  0  0  0  0
    9.3890  -32.5700  -30.7510 C   0  0  0  0  0  0  0  0  0  0  0  0
   10.4240  -33.3200  -30.8340 C   0  0  0  0  0  0  0  0  0  0  0  0
    6.9270  -35.2260  -35.2020 C   0  0  0  0  0  0  0  0  0  0  0  0
   10.6860  -34.0170  -31.7770 C   0  0  0  0  0  0  0  0  0  0  0  0
    7.5690  -33.8760  -33.3850 C   0  0  0  0  0  0  0  0  0  0  0  0
    8.5590  -33.5660  -32.5910 C   0  0  0  0  0  0  0  0  0  0  0  0
    5.7690  -34.6720  -34.9400 C   0  0  0  0  0  0  0  0  0  0  0  0
  1  4  1  0
  2  8  1  0
  3 12  1  6
  3 14  1  0
  5  3  1  0
  5  2  1  0
  6 10  2  0
  7  1  1  0
  8 15  2  0
  8 13  1  0
  9 16  2  0
 11 10  1  0
 12 16  1  0
 13 11  2  0
 14  1  2  0
 14 15  1  0
 15  6  1  0
 16  7  1  0
M  END
$$$$

     RDKit          3D

 17 21  0  0  0  0  0  0  0  0999 V2000
    7.7260  -35.3350  -34.3990 C   0  0  0  0  0  0  0  0  0  0  0  0
    8.7630  -36.0980  -34.3480 C   0  0  0  0  0  0  0  0  0  0  0  0
    5.4480  -34.8660  -35.1310 N   0  0  0  0  0  0  0  0  0  0  0  0
    7.2630  -34.3010  -33.7740 C   0  0  0  0  0  0  0  0  0  0  0  0
   11.3810  -34.1010  -31.1940 C   0  0  0  0  0  0  0  0  0  0  0  0
    9.5560  -32.2210  -30.2510 C   0  0  0  0  0  0  0  0  0  0  0  0
   10.8320  -32.3720  -29.7110 C   0  0  0  0  0  0  0  0  0  0  0  0
    5.7080  -33.7060  -34.3710 C   0  0  0  0  0  0  0  0  0  0  0  0
    9.2100  -33.1030  -31.2040 C   0  0  2  0  0  0  0  0  0  0  0  0
    9.8210  -35.7580  -33.4820 C   0  0  0  0  0  0  0  0  0  0  0  0
   10.0690  -34.0290  -31.7020 C   0  0  2  0  0  0  0  0  0  0  0  0
    8.9560  -33.7900  -32.3760 C   0  0  2  0  0  0  0  0  0  0  0  0
    7.6020  -33.5000  -32.7300 O   0  0  0  0  0  0  0  0  0  0  0  0
   11.7100  -33.2560  -30.1220 C   0  0  0  0  0  0  0  0  0  0  0  0
    6.5190  -35.4340  -35.4550 C   0  0  0  0  0  0  0  0  0  0  0  0
    9.5890  -34.7750  -32.7250 C   0  0  0  0  0  0  0  0  0  0  0  0
    4.6580  -35.1070  -35.6520 O   0  0  0  0  0  0  0  0  0  0  0  0
  1  2  2  0
  1  4  1  0
  2 10  1  0
  3  8  1  0
  4  8  1  0
  4 13  1  0
  5 14  1  0
  6  7  1  0
  9  6  1  6
 11  9  1  0
 11  5  1  6
 12 13  1  1
 12 11  1  0
 12  9  1  0
 14  7  2  0
 15  3  1  0
 15  1  1  0
 16 10  1  0
 16 12  1  0
 16 11  1  0
 17  3  1  0
M  END
$$$$

     RDKit          3D

 25 30  0  0  0  0  0  0  0  0999 V2000
    5.9650  -35.1450  -35.1300 C   0  0  1  0  0  0  0  0  0  0  0  0
    8.5960  -32.8760  -32.2190 C   0  0  1  0  0  0  0  0  0  0  0  0
    6.4210  -34.3670  -34.4680 C   0  0  0  0  0  0  0  0  0  0  0  0
    7.2430  -32.6340  -32.9450 C   0  0  1  0  0  0  0  0  0  0  0  0
    5.6300  -36.2760  -36.9200 O   0  0  0  0  0  0  0  0  0  0  0  0
    4.5630  -32.3520  -32.5520 C   0  0  0  0  0  0  0  0  0  0  0  0
   11.8460  -33.9930  -31.0840 N   0  0  0  0  0  0  0  0  0  0  0  0
    9.5680  -32.9900  -31.1870 C   0  0  0  0  0  0  0  0  0  0  0  0
    5.3090  -31.4680  -31.6750 C   0  0  0  0  0  0  0  0  0  0  0  0
    8.4850  -34.7250  -33.9460 C   0  0  2  0  0  0  0  0  0  0  0  0
    6.5480  -31.9810  -31.9400 C   0  0  0  0  0  0  0  0  0  0  0  0
   10.8580  -33.6400  -31.4900 C   0  0  2  0  0  0  0  0  0  0  0  0
    8.1290  -35.4560  -34.9480 C   0  0  0  0  0  0  0  0  0  0  0  0
    9.6280  -34.3260  -33.5080 C   0  0  1  0  0  0  0  0  0  0  0  0
   13.0930  -33.7120  -29.2520 C   0  0  0  0  0  0  0  0  0  0  0  0
    4.9620  -35.6890  -36.1030 C   0  0  0  0  0  0  0  0  0  0  0  0
    8.2500  -34.1330  -32.8920 C   0  0  2  0  0  0  0  0  0  0  0  0
    9.1630  -35.9900  -35.1210 O   0  0  0  0  0  0  0  0  0  0  0  0
   11.6360  -33.7240  -29.8860 C   0  0  0  0  0  0  0  0  0  0  0  0
   10.8060  -33.5440  -28.9170 O   0  0  0  0  0  0  0  0  0  0  0  0
   10.3910  -34.4830  -32.7250 C   0  0  0  0  0  0  0  0  0  0  0  0
    6.9690  -35.7470  -35.3250 C   0  0  2  0  0  0  0  0  0  0  0  0
    4.9520  -32.9810  -33.5540 C   0  0  0  0  0  0  0  0  0  0  0  0
    5.9600  -33.4710  -33.6900 C   0  0  1  0  0  0  0  0  0  0  0  0
    7.0030  -35.9460  -36.9290 C   0  0  0  0  0  0  0  0  0  0  0  0
  1 16  1  6
  1  3  1  0
  2  8  1  1
 24  3  1  6
  4 17  1  0
  4  2  1  0
  4 11  1  1
  5 16  1  0
  6  9  1  0
  7 19  1  0
 10 13  1  1
 10 14  1  0
 17 10  1  1
 11  9  1  0
 12  8  1  0
 12  7  1  1
 14 17  1  0
 14 21  1  1
 17  2  1  0
 18 13  2  0
 19 15  1  0
 19 20  2  0
 21 12  1  0
 22  1  1  0
 22 13  1  0
 23  6  1  0
 24 23  1  0
 24  4  1  0
 25  5  1  0
 22 25  1  6
M  END
$$$$

     RDKit          3D

 27 30  0  0  0  0  0  0  0  0999 V2000
    7.8480  -33.9050  -33.2180 N   0  0  0  0  0  0  0  0  0  0  0  0
   10.3380  -33.0030  -30.2800 C   0  0  0  0  0  0  0  0  0  0  0  0
    2.9210  -35.1460  -38.2560 N   0  0  0  0  0  0  0  0  0  0  0  0
    6.3210  -32.3350  -32.5900 C   0  0  0  0  0  0  0  0  0  0  0  0
    4.1950  -34.9630  -35.9240 C   0  0  1  0  0  0  0  0  0  0  0  0
    1.9200  -35.4320  -36.1680 C   0  0  0  0  0  0  0  0  0  0  0  0
    7.1230  -34.3140  -34.0740 N   0  0  0  0  0  0  0  0  0  0  0  0
    7.6020  -32.8560  -32.4980 C   0  0  0  0  0  0  0  0  0  0  0  0
   12.5710  -33.4250  -29.7290 O   0  0  0  0  0  0  0  0  0  0  0  0
    4.1190  -32.8030  -33.5600 O   0  0  0  0  0  0  0  0  0  0  0  0
   10.5430  -33.1680  -32.5050 N   0  0  0  0  0  0  0  0  0  0  0  0
    5.8480  -33.7200  -34.2970 C   0  0  2  0  0  0  0  0  0  0  0  0
   12.9320  -33.4910  -32.7680 C   0  0  0  0  0  0  0  0  0  0  0  0
    8.4780  -32.4520  -31.4890 N   0  0  0  0  0  0  0  0  0  0  0  0
    2.8440  -34.3840  -35.7190 C   0  0  0  0  0  0  0  0  0  0  0  0
   11.7430  -33.3080  -31.8870 N   0  0  0  0  0  0  0  0  0  0  0  0
    4.2310  -35.0160  -37.5350 C   0  0  0  0  0  0  0  0  0  0  0  0
    8.7130  -35.7780  -34.5630 C   0  0  0  0  0  0  0  0  0  0  0  0
    6.2200  -35.3960  -35.5200 C   0  0  0  0  0  0  0  0  0  0  0  0
    1.6160  -35.2020  -37.6350 C   0  0  0  0  0  0  0  0  0  0  0  0
   12.2200  -32.7030  -28.5430 C   0  0  0  0  0  0  0  0  0  0  0  0
    5.4440  -32.7930  -33.6570 C   0  0  2  0  0  0  0  0  0  0  0  0
    5.3890  -34.6670  -35.1430 N   0  0  0  0  0  0  0  0  0  0  0  0
   11.6370  -33.2260  -30.6030 C   0  0  0  0  0  0  0  0  0  0  0  0
    6.0320  -31.4470  -31.9170 O   0  0  0  0  0  0  0  0  0  0  0  0
    7.3870  -35.2770  -34.7820 C   0  0  0  0  0  0  0  0  0  0  0  0
    9.6330  -32.9100  -31.4730 C   0  0  0  0  0  0  0  0  0  0  0  0
  1  8  2  0
  3 20  1  0
  3 17  2  0
  4  8  1  0
  4 25  2  0
  5 17  1  0
  5 15  1  0
  5 23  1  6
  6 15  1  0
  7  1  1  0
  8 14  1  0
  9 21  1  0
 11 16  1  0
 11 27  2  0
 12  7  1  0
 12 22  1  0
 13 16  1  0
 14 27  1  0
 16 24  1  0
 19 26  1  0
 20  6  1  0
 22 10  1  1
 22  4  1  0
 23 19  1  0
 12 23  1  1
 24  2  2  0
 24  9  1  0
 26 18  1  0
 26  7  1  0
 27  2  1  0
M  END
$$$$

     RDKit          3D

 24 27  0  0  0  0  0  0  0  0999 V2000
    6.5850  -31.9950  -31.4530 C   0  0  0  0  0  0  0  0  0  0  0  0
    3.1970  -34.7400  -35.6920 N   0  0  0  0  0  0  0  0  0  0  0  0
    4.4030  -34.5270  -35.1930 C   0  0  0  0  0  0  0  0  0  0  0  0
    3.9470  -33.0340  -33.4170 N   0  0  0  0  0  0  0  0  0  0  0  0
   10.4300  -34.0040  -30.3180 C   0  0  0  0  0  0  0  0  0  0  0  0
   11.4050  -33.3900  -29.9270 N   0  0  0  0  0  0  0  0  0  0  0  0
   11.6360  -33.6790  -32.0030 N   0  0  0  0  0  0  0  0  0  0  0  0
    4.5970  -32.4200  -32.5370 C   0  0  0  0  0  0  0  0  0  0  0  0
    3.8600  -31.4970  -31.5470 C   0  0  0  0  0  0  0  0  0  0  0  0
    8.0210  -33.7860  -33.2660 C   0  0  0  0  0  0  0  0  0  0  0  0
    7.9140  -31.7600  -32.1000 C   0  0  0  0  0  0  0  0  0  0  0  0
    8.6970  -36.4130  -34.8900 C   0  0  0  0  0  0  0  0  0  0  0  0
    9.2020  -34.6150  -33.6380 N   0  0  0  0  0  0  0  0  0  0  0  0
   10.5420  -34.2300  -31.6570 C   0  0  0  0  0  0  0  0  0  0  0  0
    9.9310  -35.7630  -34.4330 C   0  0  0  0  0  0  0  0  0  0  0  0
    6.0750  -33.8120  -33.8400 C   0  0  0  0  0  0  0  0  0  0  0  0
    6.5960  -34.8720  -34.9110 C   0  0  0  0  0  0  0  0  0  0  0  0
   12.2150  -33.2330  -30.9690 O   0  0  0  0  0  0  0  0  0  0  0  0
    9.7450  -34.9810  -32.2970 C   0  0  0  0  0  0  0  0  0  0  0  0
    4.7390  -33.7670  -34.1750 C   0  0  1  0  0  0  0  0  0  0  0  0
    5.8120  -32.6330  -32.6180 N   0  0  0  0  0  0  0  0  0  0  0  0
    7.7510  -35.4980  -35.3530 C   0  0  0  0  0  0  0  0  0  0  0  0
    5.5330  -35.0750  -35.6060 N   0  0  0  0  0  0  0  0  0  0  0  0
    8.2750  -33.1880  -32.0610 O   0  0  0  0  0  0  0  0  0  0  0  0
  2  3  1  0
  4  8  2  0
  5  6  2  0
  7 14  2  0
  7 18  1  0
  8  9  1  0
 10 24  1  0
 11 24  1  0
 11  1  1  0
 12 15  1  0
 13 10  1  0
 13 19  1  0
 14  5  1  0
 15 13  1  0
 16 21  1  0
 17 16  2  0
 18  6  1  0
 19 14  1  0
 20  3  1  0
 20 16  1  0
 20  4  1  1
 21  8  1  0
 21  1  1  0
 22 17  1  0
 22 12  1  0
 23  3  2  0
 23 17  1  0
M  END
$$$$

     RDKit          3D

 19 23  0  0  0  0  0  0  0  0999 V2000
   11.2280  -33.6330  -31.0730 S   0  0  0  0  0  0  0  0  0  0  0  0
    5.3340  -33.7510  -34.0680 C   0  0  0  0  0  0  0  0  0  0  0  0
    6.4600  -31.9980  -31.6530 C   0  0  0  0  0  0  0  0  0  0  0  0
   10.1260  -34.4490  -32.5360 C   0  0  1  0  0  0  0  0  0  0  0  0
   10.6190  -33.4170  -30.8720 C   0  0  0  0  0  0  0  0  0  0  0  0
    8.0490  -34.0790  -33.3920 C   0  0  0  0  0  0  0  0  0  0  0  0
    8.2030  -34.6420  -34.5670 C   0  0  2  0  0  0  0  0  0  0  0  0
   11.0600  -33.5220  -32.2950 C   0  0  2  0  0  0  0  0  0  0  0  0
    5.8600  -33.0930  -33.4220 C   0  0  0  0  0  0  0  0  0  0  0  0
    6.8340  -32.4970  -32.1910 C   0  0  0  0  0  0  0  0  0  0  0  0
    7.0060  -32.9820  -33.1790 C   0  0  1  0  0  0  0  0  0  0  0  0
    8.4320  -33.3140  -32.8450 C   0  0  1  0  0  0  0  0  0  0  0  0
    6.9550  -35.0590  -34.9440 C   0  0  0  0  0  0  0  0  0  0  0  0
   11.6020  -33.7830  -33.6610 C   0  0  0  0  0  0  0  0  0  0  0  0
    5.7300  -34.6100  -34.7260 C   0  0  0  0  0  0  0  0  0  0  0  0
   10.9170  -35.0550  -33.6970 C   0  0  2  0  0  0  0  0  0  0  0  0
    9.8720  -33.3280  -32.4260 C   0  0  2  0  0  0  0  0  0  0  0  0
    8.9040  -33.9720  -32.3190 C   0  0  2  0  0  0  0  0  0  0  0  0
    9.2310  -35.3330  -34.4340 C   0  0  0  0  0  0  0  0  0  0  0  0
  1  5  1  0
  2  9  2  3
  4 17  1  0
  4 18  1  0
  4  8  1  0
 12  6  1  6
  7 19  1  1
  7  6  1  0
  8  1  1  1
  9 11  1  0
 10  3  3  0
 11 12  1  0
 11 10  1  1
 18 12  1  6
 13 15  2  3
 13  7  1  0
 14  8  1  0
 15  2  1  0
 16 14  1  6
  4 16  1  6
 17 18  1  0
 17  8  1  1
 19 16  1  0
M  END
$$$$

     RDKit          3D

 32 36  0  0  0  0  0  0  0  0999 V2000
   11.4480  -32.6810  -28.6470 C   0  0  0  0  0  0  0  0  0  0  0  0
    2.9100  -32.2000  -31.5280 C   0  0  0  0  0  0  0  0  0  0  0  0
    4.3780  -32.0050  -31.2490 C   0  0  0  0  0  0  0  0  0  0  0  0
    6.3640  -33.1650  -33.4550 C   0  0  2  0  0  0  0  0  0  0  0  0
   11.2600  -35.1770  -33.8810 C   0  0  0  0  0  0  0  0  0  0  0  0
   12.6970  -33.2430  -29.2350 C   0  0  0  0  0  0  0  0  0  0  0  0
    1.8960  -32.1300  -30.6280 O   0  0  0  0  0  0  0  0  0  0  0  0
   11.7640  -36.1880  -34.5910 C   0  0  0  0  0  0  0  0  0  0  0  0
    8.0600  -32.7940  -32.3110 C   0  0  0  0  0  0  0  0  0  0  0  0
   11.1630  -37.3920  -34.6290 C   0  0  0  0  0  0  0  0  0  0  0  0
    9.5180  -34.3060  -32.5070 C   0  0  1  0  0  0  0  0  0  0  0  0
    8.6800  -32.6210  -31.0380 N   0  0  0  0  0  0  0  0  0  0  0  0
   10.4760  -31.9500  -29.7000 C   0  0  0  0  0  0  0  0  0  0  0  0
    4.9540  -32.5370  -32.0230 C   0  0  0  0  0  0  0  0  0  0  0  0
    6.7920  -35.3260  -34.9440 C   0  0  2  0  0  0  0  0  0  0  0  0
    7.3600  -34.2410  -33.7360 C   0  0  2  0  0  0  0  0  0  0  0  0
    4.8940  -34.7780  -36.3680 C   0  0  0  0  0  0  0  0  0  0  0  0
    8.2300  -34.0200  -32.9020 C   0  0  2  0  0  0  0  0  0  0  0  0
   10.2150  -33.8950  -31.5450 N   0  0  0  0  0  0  0  0  0  0  0  0
    3.7060  -32.9440  -33.7910 C   0  0  0  0  0  0  0  0  0  0  0  0
    9.3700  -36.5700  -33.3670 C   0  0  0  0  0  0  0  0  0  0  0  0
   12.6570  -33.6340  -30.7410 C   0  0  0  0  0  0  0  0  0  0  0  0
   11.4620  -34.6340  -30.9970 C   0  0  0  0  0  0  0  0  0  0  0  0
    5.5070  -34.7350  -35.1580 O   0  0  0  0  0  0  0  0  0  0  0  0
    9.9560  -35.4220  -33.3100 C   0  0  0  0  0  0  0  0  0  0  0  0
    9.9260  -32.8670  -30.7160 C   0  0  0  0  0  0  0  0  0  0  0  0
    6.8930  -36.6580  -34.2190 O   0  0  0  0  0  0  0  0  0  0  0  0
    9.9720  -37.5480  -34.0660 C   0  0  0  0  0  0  0  0  0  0  0  0
    7.2100  -32.1360  -32.8920 N   0  0  0  0  0  0  0  0  0  0  0  0
    2.8590  -32.5990  -32.9790 C   0  0  0  0  0  0  0  0  0  0  0  0
    5.1650  -32.9010  -33.2080 C   0  0  2  0  0  0  0  0  0  0  0  0
    7.4100  -35.7840  -36.4220 C   0  0  0  0  0  0  0  0  0  0  0  0
  2  3  1  0
  2  7  1  0
  4 31  1  0
  4 29  1  1
  5 25  2  0
  6  1  1  0
  8  5  1  0
  9 12  2  0
 10  8  2  0
 10 28  1  0
 11 25  1  1
 11 19  1  0
 12 26  1  0
 13  1  1  0
 14  3  1  0
 15 32  1  6
 15 27  1  0
 16 15  1  1
 16  4  1  0
 16 18  1  0
 17 24  1  0
 18 11  1  0
 18  9  1  6
 19 23  1  0
 19 26  1  0
 20 30  1  0
 21 25  1  0
 22  6  1  0
 23 22  1  0
 24 15  1  0
 26 13  1  0
 28 21  2  0
 29  9  1  0
 30  2  2  0
 31 20  1  1
 31 14  1  0
M  END
$$$$

     RDKit          3D

 23 26  0  0  0  0  0  0  0  0999 V2000
    4.0230  -34.2310  -35.3690 C   0  0  0  0  0  0  0  0  0  0  0  0
    4.2710  -33.3190  -34.3760 C   0  0  0  0  0  0  0  0  0  0  0  0
    6.5930  -33.9250  -33.8920 C   0  0  0  0  0  0  0  0  0  0  0  0
   12.0780  -34.3410  -33.7210 C   0  0  0  0  0  0  0  0  0  0  0  0
   11.3740  -34.0730  -30.2190 C   0  0  0  0  0  0  0  0  0  0  0  0
    8.0770  -35.5310  -34.6250 C   0  0  0  0  0  0  0  0  0  0  0  0
    6.7590  -35.0340  -34.7910 C   0  0  0  0  0  0  0  0  0  0  0  0
   10.9060  -35.2810  -33.5490 C   0  0  0  0  0  0  0  0  0  0  0  0
    9.4490  -33.8130  -31.9750 C   0  0  2  0  0  0  0  0  0  0  0  0
    6.0530  -35.5570  -35.7700 C   0  0  0  0  0  0  0  0  0  0  0  0
    8.5620  -34.7920  -33.6530 C   0  0  0  0  0  0  0  0  0  0  0  0
    8.2400  -33.2460  -32.2150 N   0  0  0  0  0  0  0  0  0  0  0  0
    7.6930  -33.8750  -33.1700 N   0  0  0  0  0  0  0  0  0  0  0  0
   11.0910  -31.2550  -28.2640 O   0  0  0  0  0  0  0  0  0  0  0  0
   10.2040  -33.3500  -30.8810 C   0  0  0  0  0  0  0  0  0  0  0  0
    4.6770  -35.1740  -36.0060 C   0  0  0  0  0  0  0  0  0  0  0  0
   11.7550  -33.2190  -29.0930 O   0  0  0  0  0  0  0  0  0  0  0  0
   10.9490  -36.4410  -33.9450 O   0  0  0  0  0  0  0  0  0  0  0  0
    5.5070  -33.1010  -33.6760 C   0  0  0  0  0  0  0  0  0  0  0  0
   10.0020  -32.1580  -30.1870 C   0  0  0  0  0  0  0  0  0  0  0  0
   10.9770  -32.1620  -29.0830 C   0  0  0  0  0  0  0  0  0  0  0  0
   12.4250  -33.0430  -33.6550 C   0  0  0  0  0  0  0  0  0  0  0  0
    9.6810  -34.6760  -33.0190 C   0  0  1  0  0  0  0  0  0  0  0  0
  1  2  1  0
  2 19  1  0
  3 19  2  0
  3 13  1  0
  4 22  2  0
  4  8  1  0
  5 17  1  0
  6 11  2  0
  7  6  1  0
  7  3  1  0
  9 15  1  6
 10  7  2  0
 11 13  1  0
 11 23  1  0
 12  9  1  0
 13 12  1  0
 15  5  1  0
 15 20  2  0
 16 10  1  0
 16  1  2  0
 17 21  1  0
 18  8  2  0
 20 21  1  0
 21 14  2  0
 23  8  1  6
 23  9  1  0
M  END
$$$$

     RDKit          3D

 29 36  0  0  0  0  0  0  0  0999 V2000
    4.9320  -32.7420  -33.0710 C   0  0  2  0  0  0  0  0  0  0  0  0
   12.2390  -33.8360  -30.9250 C   0  0  0  0  0  0  0  0  0  0  0  0
    3.4580  -33.9500  -35.2970 C   0  0  0  0  0  0  0  0  0  0  0  0
    8.5790  -36.6430  -34.2140 C   0  0  0  0  0  0  0  0  0  0  0  0
    8.5530  -34.1150  -32.7530 C   0  0  2  0  0  0  0  0  0  0  0  0
    8.9060  -31.9030  -30.0410 O   0  0  0  0  0  0  0  0  0  0  0  0
   11.0840  -32.7570  -29.2910 C   0  0  0  0  0  0  0  0  0  0  0  0
   11.2010  -33.9370  -31.7140 C   0  0  0  0  0  0  0  0  0  0  0  0
    4.5120  -33.6650  -34.4810 C   0  0  1  0  0  0  0  0  0  0  0  0
    5.5220  -31.9580  -32.3960 C   0  0  0  0  0  0  0  0  0  0  0  0
    9.0960  -34.7470  -33.7750 C   0  0  1  0  0  0  0  0  0  0  0  0
   10.1190  -33.2390  -31.3380 C   0  0  0  0  0  0  0  0  0  0  0  0
   10.0540  -32.6110  -30.2160 C   0  0  0  0  0  0  0  0  0  0  0  0
   11.2950  -34.8050  -32.8350 C   0  0  0  0  0  0  0  0  0  0  0  0
    9.2930  -33.5950  -33.5930 O   0  0  0  0  0  0  0  0  0  0  0  0
    8.9750  -33.1440  -32.1150 C   0  0  2  0  0  0  0  0  0  0  0  0
    6.0390  -35.0100  -35.8430 C   0  0  0  0  0  0  0  0  0  0  0  0
    5.7570  -34.0890  -34.6990 C   0  0  0  0  0  0  0  0  0  0  0  0
    7.6060  -32.2760  -32.1000 C   0  0  2  0  0  0  0  0  0  0  0  0
    4.9330  -35.3790  -36.3650 C   0  0  0  0  0  0  0  0  0  0  0  0
    6.3140  -33.3770  -33.5930 C   0  0  0  0  0  0  0  0  0  0  0  0
   10.2720  -35.0360  -33.7140 C   0  0  1  0  0  0  0  0  0  0  0  0
    6.4190  -31.5990  -31.7850 C   0  0  0  0  0  0  0  0  0  0  0  0
   12.1900  -33.3810  -29.6430 C   0  0  0  0  0  0  0  0  0  0  0  0
    7.2830  -33.2320  -32.9590 C   0  0  2  0  0  0  0  0  0  0  0  0
    3.7340  -34.9620  -36.2600 N   0  0  0  0  0  0  0  0  0  0  0  0
    9.9720  -36.5110  -33.5000 C   0  0  0  0  0  0  0  0  0  0  0  0
    2.3370  -33.5820  -35.2830 O   0  0  0  0  0  0  0  0  0  0  0  0
    8.6140  -35.3940  -35.0540 C   0  0  0  0  0  0  0  0  0  0  0  0
  1 10  1  6
  2 24  2  0
  3 28  2  0
  4 27  1  0
  5 15  1  6
  5 16  1  0
  8 12  2  0
  8  2  1  0
  9  3  1  6
  9  1  1  0
 10 23  1  0
 11 29  1  6
 11 22  1  0
 11 15  1  0
 11  5  1  0
 12 13  1  0
 13  6  1  0
 13  7  2  0
 14  8  1  0
 16 19  1  0
 16 12  1  1
 17 18  1  0
 18  9  1  0
 18 21  2  0
 19 23  1  1
 20 26  2  0
 20 17  1  0
 21  1  1  0
 22 27  1  1
 22 14  1  0
 24  7  1  0
 25 21  1  1
 25  5  1  0
 25 19  1  0
 26  3  1  0
 29  4  1  0
M  END
$$$$

     RDKit          3D

 33 37  0  0  0  0  0  0  0  0999 V2000
   10.5420  -33.8920  -31.7280 C   0  0  2  0  0  0  0  0  0  0  0  0
   12.0850  -32.6510  -26.7960 C   0  0  0  0  0  0  0  0  0  0  0  0
    9.2830  -31.7980  -30.3680 C   0  0  0  0  0  0  0  0  0  0  0  0
   11.4530  -35.9850  -33.7720 C   0  0  0  0  0  0  0  0  0  0  0  0
   10.2950  -37.9360  -33.9830 C   0  0  0  0  0  0  0  0  0  0  0  0
   10.3500  -35.1780  -33.7430 C   0  0  0  0  0  0  0  0  0  0  0  0
    2.5230  -33.0830  -34.3250 N   0  0  0  0  0  0  0  0  0  0  0  0
   10.0460  -30.9860  -27.7170 C   0  0  0  0  0  0  0  0  0  0  0  0
    6.1930  -34.2050  -34.2300 C   0  0  2  0  0  0  0  0  0  0  0  0
    9.1400  -35.8560  -33.9810 C   0  0  0  0  0  0  0  0  0  0  0  0
    7.9430  -35.2550  -34.1920 C   0  0  0  0  0  0  0  0  0  0  0  0
    5.6300  -34.2950  -35.3770 C   0  0  0  0  0  0  0  0  0  0  0  0
    7.5210  -35.6790  -35.4320 C   0  0  0  0  0  0  0  0  0  0  0  0
   12.2590  -31.7250  -27.9410 C   0  0  0  0  0  0  0  0  0  0  0  0
   11.0860  -33.3560  -30.4880 C   0  0  0  0  0  0  0  0  0  0  0  0
    4.7520  -34.0820  -37.8580 C   0  0  0  0  0  0  0  0  0  0  0  0
    3.7550  -33.9640  -36.8080 C   0  0  2  0  0  0  0  0  0  0  0  0
    9.1850  -37.1910  -34.0270 C   0  0  0  0  0  0  0  0  0  0  0  0
    2.4080  -33.7190  -36.4460 C   0  0  0  0  0  0  0  0  0  0  0  0
    3.8250  -33.4280  -34.6240 N   0  0  0  0  0  0  0  0  0  0  0  0
    8.9140  -32.4500  -31.7290 C   0  0  0  0  0  0  0  0  0  0  0  0
   12.2590  -33.7770  -30.0670 C   0  0  0  0  0  0  0  0  0  0  0  0
   13.1400  -33.9050  -29.6020 N   0  0  0  0  0  0  0  0  0  0  0  0
    4.4530  -33.9580  -35.5340 C   0  0  2  0  0  0  0  0  0  0  0  0
    6.2540  -33.6600  -33.2610 C   0  0  0  0  0  0  0  0  0  0  0  0
    7.2690  -34.3220  -33.5800 C   0  0  2  0  0  0  0  0  0  0  0  0
   10.9520  -31.6600  -28.6980 N   0  0  0  0  0  0  0  0  0  0  0  0
   10.5060  -32.3630  -29.7200 C   0  0  0  0  0  0  0  0  0  0  0  0
   11.4670  -37.2670  -33.9350 C   0  0  0  0  0  0  0  0  0  0  0  0
    6.4130  -35.2420  -35.9430 C   0  0  0  0  0  0  0  0  0  0  0  0
    2.1300  -32.4950  -35.6050 C   0  0  0  0  0  0  0  0  0  0  0  0
   10.5960  -33.7630  -33.2680 C   0  0  0  0  0  0  0  0  0  0  0  0
    9.1600  -33.7850  -31.5160 O   0  0  0  0  0  0  0  0  0  0  0  0
  1 32  1  6
  1 33  1  0
  1 15  1  0
  3 28  1  0
  4  6  2  0
  5 29  2  0
  6 32  1  0
  9 26  1  0
  9 25  1  6
 10  6  1  0
 11 10  1  0
 11 26  1  0
 12  9  1  0
 13 11  2  0
 14  2  1  0
 15 22  1  0
 15 28  2  0
 17 16  1  6
 17 19  1  0
 17 24  1  0
 18  5  1  0
 18 10  2  0
 19 31  1  0
 20  7  1  0
 21 33  1  0
 21  3  1  0
 22 23  3  0
 24 12  1  6
 24 20  1  0
 26 25  1  1
 27 14  1  0
 27  8  1  0
 28 27  1  0
 29  4  1  0
 30 13  1  0
 30 12  2  0
 31  7  1  0
M  END
$$$$

     RDKit          3D

 19 20  0  0  0  0  0  0  0  0999 V2000
    6.0170  -36.0000  -36.4990 C   0  0  0  0  0  0  0  0  0  0  0  0
    4.4460  -33.1360  -33.7040 C   0  0  0  0  0  0  0  0  0  0  0  0
   10.5290  -34.2190  -31.8060 C   0  0  0  0  0  0  0  0  0  0  0  0
    8.1380  -35.5030  -34.8530 N   0  0  0  0  0  0  0  0  0  0  0  0
   11.4190  -33.1460  -31.1400 C   0  0  2  0  0  0  0  0  0  0  0  0
    8.0080  -32.4110  -31.1960 N   0  0  0  0  0  0  0  0  0  0  0  0
    6.8170  -35.4000  -35.3160 N   0  0  0  0  0  0  0  0  0  0  0  0
    8.3220  -34.6790  -33.8350 C   0  0  0  0  0  0  0  0  0  0  0  0
   10.3650  -35.8400  -33.6360 C   0  0  0  0  0  0  0  0  0  0  0  0
    9.5800  -34.7290  -33.0140 C   0  0  0  0  0  0  0  0  0  0  0  0
    6.1230  -34.4460  -34.4620 C   0  0  0  0  0  0  0  0  0  0  0  0
    7.0920  -33.9080  -33.6590 C   0  0  0  0  0  0  0  0  0  0  0  0
    6.7850  -33.2010  -32.9300 C   0  0  0  0  0  0  0  0  0  0  0  0
    8.0740  -33.1980  -32.4150 C   0  0  0  0  0  0  0  0  0  0  0  0
    5.0590  -31.7720  -32.0550 F   0  0  0  0  0  0  0  0  0  0  0  0
   12.7340  -33.6160  -30.7750 C   0  0  0  0  0  0  0  0  0  0  0  0
    4.7400  -34.1310  -34.5100 C   0  0  0  0  0  0  0  0  0  0  0  0
    5.3870  -32.6980  -32.9720 C   0  0  0  0  0  0  0  0  0  0  0  0
   10.8820  -32.6840  -29.8880 C   0  0  0  0  0  0  0  0  0  0  0  0
  1  7  1  0
  2 18  2  0
  3  5  1  0
  4  8  2  0
  5 16  1  1
  5 19  1  0
  7  4  1  0
  7 11  1  0
  8 12  1  0
  8 10  1  0
 10  9  1  0
 10  3  1  0
 11 12  1  0
 12 13  2  0
 13 14  1  0
 14  6  1  0
 17 11  2  0
 17  2  1  0
 18 13  1  0
 18 15  1  0
M  END
$$$$

     RDKit          3D

 25 27  0  0  0  0  0  0  0  0999 V2000
    7.2150  -34.0060  -33.7710 C   0  0  0  0  0  0  0  0  0  0  0  0
   11.7480  -33.2410  -30.1550 C   0  0  0  0  0  0  0  0  0  0  0  0
    5.0530  -33.0730  -34.0510 C   0  0  0  0  0  0  0  0  0  0  0  0
    4.7920  -33.8960  -35.0250 N   0  0  0  0  0  0  0  0  0  0  0  0
    8.3510  -34.0830  -33.1510 N   0  0  0  0  0  0  0  0  0  0  0  0
    5.3400  -35.8170  -36.5090 C   0  0  0  0  0  0  0  0  0  0  0  0
   10.0100  -33.7270  -31.6800 C   0  0  0  0  0  0  0  0  0  0  0  0
    5.6640  -34.8590  -35.3860 C   0  0  0  0  0  0  0  0  0  0  0  0
   10.9560  -35.0360  -34.9240 C   0  0  0  0  0  0  0  0  0  0  0  0
   10.7030  -35.4870  -33.5120 C   0  0  2  0  0  0  0  0  0  0  0  0
    7.8390  -32.4630  -31.5770 C   0  0  0  0  0  0  0  0  0  0  0  0
    6.8810  -34.9090  -34.7530 C   0  0  0  0  0  0  0  0  0  0  0  0
    5.5730  -31.5620  -31.5860 C   0  0  0  0  0  0  0  0  0  0  0  0
    5.5360  -35.1330  -37.8490 O   0  0  0  0  0  0  0  0  0  0  0  0
    5.1260  -33.9150  -38.4370 C   0  0  0  0  0  0  0  0  0  0  0  0
    9.9250  -36.7860  -33.3750 C   0  0  0  0  0  0  0  0  0  0  0  0
   12.6310  -33.3420  -31.1970 C   0  0  0  0  0  0  0  0  0  0  0  0
    6.5510  -32.3580  -32.1870 C   0  0  0  0  0  0  0  0  0  0  0  0
    6.3200  -33.1480  -33.3210 C   0  0  0  0  0  0  0  0  0  0  0  0
    4.5630  -31.0940  -31.0760 N   0  0  0  0  0  0  0  0  0  0  0  0
   10.9690  -34.4620  -32.4560 C   0  0  0  0  0  0  0  0  0  0  0  0
   12.3290  -33.2090  -28.8980 O   0  0  0  0  0  0  0  0  0  0  0  0
    8.7130  -33.3580  -32.1560 C   0  0  0  0  0  0  0  0  0  0  0  0
   12.2170  -33.8920  -32.3770 C   0  0  0  0  0  0  0  0  0  0  0  0
   10.4280  -33.3700  -30.4550 C   0  0  0  0  0  0  0  0  0  0  0  0
  1 19  1  0
  1  5  1  0
  2 22  1  0
  3 19  2  0
  4  3  1  0
  5 23  2  0
  6  8  1  0
  7 25  2  0
  8  4  2  0
  8 12  1  0
 10  9  1  6
 10 16  1  0
 10 21  1  0
 12  1  2  0
 13 20  3  0
 14  6  1  0
 15 14  1  0
 17  2  2  0
 18 13  1  0
 18 11  2  0
 19 18  1  0
 21 24  2  0
 21  7  1  0
 23  7  1  0
 23 11  1  0
 24 17  1  0
 25  2  1  0
M  END
$$$$

     RDKit          3D

 21 24  0  0  0  0  0  0  0  0999 V2000
   11.4990  -33.6570  -33.1990 C   0  0  0  0  0  0  0  0  0  0  0  0
   11.6560  -33.8690  -30.1470 C   0  0  0  0  0  0  0  0  0  0  0  0
   12.1100  -33.3750  -31.1260 C   0  0  0  0  0  0  0  0  0  0  0  0
    4.4900  -33.1900  -33.5050 C   0  0  0  0  0  0  0  0  0  0  0  0
    5.4700  -31.7780  -31.4680 C   0  0  0  0  0  0  0  0  0  0  0  0
    6.5830  -34.0750  -34.0400 C   0  0  0  0  0  0  0  0  0  0  0  0
    4.1120  -31.8350  -31.6850 C   0  0  0  0  0  0  0  0  0  0  0  0
    8.5910  -33.9360  -32.6240 N   0  0  0  0  0  0  0  0  0  0  0  0
    9.3780  -35.7920  -33.2630 N   0  0  0  0  0  0  0  0  0  0  0  0
    9.8250  -34.6800  -32.4780 C   0  0  0  0  0  0  0  0  0  0  0  0
    5.7880  -33.2060  -33.3100 C   0  0  0  0  0  0  0  0  0  0  0  0
    8.5230  -35.4660  -34.1490 C   0  0  0  0  0  0  0  0  0  0  0  0
    4.6790  -34.6170  -35.3990 C   0  0  0  0  0  0  0  0  0  0  0  0
    3.9220  -33.7870  -34.6510 C   0  0  0  0  0  0  0  0  0  0  0  0
    5.9910  -34.7520  -35.0820 C   0  0  0  0  0  0  0  0  0  0  0  0
    3.5900  -32.5100  -32.7220 C   0  0  0  0  0  0  0  0  0  0  0  0
    7.9500  -34.2820  -33.7320 C   0  0  1  0  0  0  0  0  0  0  0  0
   10.7730  -34.4490  -30.1350 C   0  0  0  0  0  0  0  0  0  0  0  0
   11.3410  -33.6010  -31.6220 C   0  0  2  0  0  0  0  0  0  0  0  0
    6.3260  -32.4960  -32.2210 C   0  0  0  0  0  0  0  0  0  0  0  0
   10.6020  -34.5360  -31.4210 C   0  0  2  0  0  0  0  0  0  0  0  0
  2 18  1  0
  3  2  1  0
  4 11  1  0
  4 16  2  0
  6 11  1  0
  7  5  2  0
  8 10  2  0
  9 10  1  0
 11 20  2  0
 12 17  1  0
 12  9  1  0
 13 15  1  0
 13 14  2  0
 14  4  1  0
 15  6  2  0
 16  7  1  0
 17  6  1  1
 17  8  1  0
 19  1  1  6
 19 21  1  0
 19  3  1  0
 20  5  1  0
 21 10  1  1
 21 18  1  0
M  END
$$$$

     RDKit          3D

 27 31  0  0  0  0  0  0  0  0999 V2000
    9.9270  -34.8860  -33.3390 C   0  0  0  0  0  0  0  0  0  0  0  0
   11.1440  -32.5650  -29.4240 C   0  0  0  0  0  0  0  0  0  0  0  0
    9.1700  -36.2270  -34.9920 N   0  0  0  0  0  0  0  0  0  0  0  0
   12.2270  -32.6260  -28.6190 C   0  0  0  0  0  0  0  0  0  0  0  0
    4.0440  -32.4210  -30.8740 C   0  0  1  0  0  0  0  0  0  0  0  0
    7.1480  -35.6740  -36.0140 N   0  0  0  0  0  0  0  0  0  0  0  0
    7.4380  -31.5190  -31.5990 C   0  0  0  0  0  0  0  0  0  0  0  0
    5.4690  -34.3760  -34.8200 C   0  0  0  0  0  0  0  0  0  0  0  0
    2.8600  -32.7340  -29.9850 C   0  0  0  0  0  0  0  0  0  0  0  0
   13.4780  -34.3100  -29.6100 C   0  0  0  0  0  0  0  0  0  0  0  0
   10.0800  -35.8560  -34.2580 C   0  0  0  0  0  0  0  0  0  0  0  0
    5.1940  -31.7370  -30.3710 C   0  0  0  0  0  0  0  0  0  0  0  0
    5.5930  -32.6490  -32.3440 N   0  0  0  0  0  0  0  0  0  0  0  0
   13.3000  -33.3920  -28.6240 C   0  0  0  0  0  0  0  0  0  0  0  0
   11.0000  -34.6160  -32.3760 N   0  0  0  0  0  0  0  0  0  0  0  0
    6.0650  -31.8630  -31.3160 C   0  0  2  0  0  0  0  0  0  0  0  0
   10.6920  -33.1680  -30.4420 C   0  0  0  0  0  0  0  0  0  0  0  0
   12.6440  -34.5270  -30.7100 C   0  0  0  0  0  0  0  0  0  0  0  0
    6.5800  -32.9570  -33.1670 N   0  0  0  0  0  0  0  0  0  0  0  0
    7.5990  -32.1280  -32.9240 C   0  0  0  0  0  0  0  0  0  0  0  0
    4.2140  -32.8650  -32.1700 C   0  0  0  0  0  0  0  0  0  0  0  0
    7.8260  -34.5860  -34.0870 C   0  0  0  0  0  0  0  0  0  0  0  0
    8.7350  -34.2750  -33.2480 N   0  0  0  0  0  0  0  0  0  0  0  0
   11.4410  -34.1260  -31.1880 C   0  0  0  0  0  0  0  0  0  0  0  0
    5.7830  -35.3330  -35.8500 C   0  0  0  0  0  0  0  0  0  0  0  0
    8.0640  -35.5380  -35.0180 C   0  0  0  0  0  0  0  0  0  0  0  0
    6.5710  -33.9860  -34.0470 C   0  0  0  0  0  0  0  0  0  0  0  0
  1 23  2  0
  1 15  1  0
  2  4  1  0
  3 11  1  0
  5 12  1  0
  5  9  1  1
  6 25  1  0
  6 26  1  0
  8 27  1  0
 10 14  2  0
 11  1  1  0
 13 21  1  0
 13 16  1  0
 14  4  1  0
 15 24  1  0
 16  7  1  1
 16 12  1  0
 17  2  2  0
 18 10  1  0
 19 20  1  0
 19 13  1  0
 20  7  1  0
 21  5  1  0
 22 27  2  0
 22 23  1  0
 24 18  2  0
 24 17  1  0
 25  8  1  0
 26  3  2  0
 26 22  1  0
 27 19  1  0
M  END
$$$$

     RDKit          3D

 16 17  0  0  0  0  0  0  0  0999 V2000
    5.5590  -32.5710  -32.5200 C   0  0  0  0  0  0  0  0  0  0  0  0
    8.1490  -32.1550  -31.4960 C   0  0  0  0  0  0  0  0  0  0  0  0
    5.1810  -35.6150  -35.3600 O   0  0  0  0  0  0  0  0  0  0  0  0
    9.8870  -36.2060  -34.5170 C   0  0  0  0  0  0  0  0  0  0  0  0
   10.8110  -35.3130  -33.9010 C   0  0  0  0  0  0  0  0  0  0  0  0
    8.7630  -35.4630  -35.0400 C   0  0  0  0  0  0  0  0  0  0  0  0
    6.6270  -34.2920  -33.9870 C   0  0  2  0  0  0  0  0  0  0  0  0
    4.6290  -33.4620  -35.1060 O   0  0  0  0  0  0  0  0  0  0  0  0
    9.0460  -33.7850  -32.9380 C   0  0  0  0  0  0  0  0  0  0  0  0
   10.2140  -34.2760  -33.1220 C   0  0  0  0  0  0  0  0  0  0  0  0
    7.0320  -31.3270  -31.0360 C   0  0  0  0  0  0  0  0  0  0  0  0
    5.7760  -31.5770  -31.5650 C   0  0  0  0  0  0  0  0  0  0  0  0
    6.6220  -33.2800  -32.9810 C   0  0  0  0  0  0  0  0  0  0  0  0
    7.6730  -35.1190  -34.3390 C   0  0  0  0  0  0  0  0  0  0  0  0
    5.3950  -34.4050  -34.7960 C   0  0  0  0  0  0  0  0  0  0  0  0
    7.9470  -33.0460  -32.4850 C   0  0  0  0  0  0  0  0  0  0  0  0
  1 12  1  0
  2 11  2  0
  3 15  2  0
  4  5  1  0
  5 10  1  0
  6  4  1  0
  6 14  1  0
  7 15  1  6
  7 13  1  0
  8 15  1  0
  9 16  2  0
 10  9  2  0
 12 11  1  0
 13  1  2  0
 13 16  1  0
 14  7  1  0
 16  2  1  0
M  END
$$$$

     RDKit          3D

 20 26  0  0  0  0  0  0  0  0999 V2000
    8.1230  -33.2370  -32.8830 C   0  0  1  0  0  0  0  0  0  0  0  0
    5.8110  -31.8600  -31.8720 C   0  0  0  0  0  0  0  0  0  0  0  0
    9.5830  -36.0460  -34.2670 C   0  0  0  0  0  0  0  0  0  0  0  0
    8.4440  -36.2020  -34.6490 C   0  0  0  0  0  0  0  0  0  0  0  0
   11.0290  -33.7140  -31.1630 C   0  0  0  0  0  0  0  0  0  0  0  0
    7.2990  -35.4510  -34.3340 C   0  0  2  0  0  0  0  0  0  0  0  0
    9.5340  -35.1360  -33.2410 C   0  0  1  0  0  0  0  0  0  0  0  0
    6.6580  -34.2690  -33.8580 C   0  0  1  0  0  0  0  0  0  0  0  0
   10.3990  -34.8860  -33.1610 C   0  0  0  0  0  0  0  0  0  0  0  0
    6.1540  -33.5550  -33.5800 C   0  0  0  0  0  0  0  0  0  0  0  0
    7.8300  -34.4290  -33.6080 C   0  0  1  0  0  0  0  0  0  0  0  0
    8.9440  -34.3700  -33.0990 C   0  0  2  0  0  0  0  0  0  0  0  0
    6.5620  -31.1770  -31.2670 O   0  0  0  0  0  0  0  0  0  0  0  0
    6.8860  -32.8010  -32.6150 C   0  0  1  0  0  0  0  0  0  0  0  0
    9.1000  -33.3580  -32.1190 C   0  0  0  0  0  0  0  0  0  0  0  0
   10.6230  -32.9220  -30.2460 C   0  0  0  0  0  0  0  0  0  0  0  0
    9.3480  -32.4810  -31.0890 C   0  0  0  0  0  0  0  0  0  0  0  0
    4.6450  -32.0440  -31.8730 O   0  0  0  0  0  0  0  0  0  0  0  0
   11.2720  -34.6060  -32.0650 C   0  0  0  0  0  0  0  0  0  0  0  0
    6.2550  -35.3130  -34.7790 C   0  0  0  0  0  0  0  0  0  0  0  0
  1 14  1  0
  1 15  1  1
  2 13  1  0
  7  3  1  6
  6  4  1  6
  4  3  1  0
  5 16  1  0
  6  8  1  0
 11  6  1  6
  7  9  1  0
  7 12  1  0
  8 11  1  0
  8 10  1  1
  9 19  1  0
 10 14  1  0
 11 12  1  0
 11  1  1  0
 12  1  1  0
 12 15  1  1
 14  2  1  6
 15 17  1  0
 17 16  1  0
 18  2  2  0
 19  5  1  0
 20  6  1  0
 20  8  1  0
M  END
$$$$

     RDKit          3D

 30 33  0  0  0  0  0  0  0  0999 V2000
   10.4070  -32.1860  -29.1850 C   0  0  0  0  0  0  0  0  0  0  0  0
    8.9680  -35.1330  -34.5540 C   0  0  1  0  0  0  0  0  0  0  0  0
   13.5540  -32.1880  -27.1640 O   0  0  0  0  0  0  0  0  0  0  0  0
    9.9210  -32.6790  -30.4340 C   0  0  0  0  0  0  0  0  0  0  0  0
    5.1370  -31.9120  -31.7440 C   0  0  0  0  0  0  0  0  0  0  0  0
    7.3550  -35.8810  -36.2450 N   0  0  0  0  0  0  0  0  0  0  0  0
    4.3680  -34.1820  -35.0490 C   0  0  0  0  0  0  0  0  0  0  0  0
    3.6620  -33.9270  -36.3630 C   0  0  2  0  0  0  0  0  0  0  0  0
    8.0830  -34.3400  -34.0160 C   0  0  0  0  0  0  0  0  0  0  0  0
    2.4120  -34.9230  -36.3740 C   0  0  0  0  0  0  0  0  0  0  0  0
    9.8990  -33.8650  -32.5070 N   0  0  0  0  0  0  0  0  0  0  0  0
    6.4980  -32.9720  -33.2040 C   0  0  1  0  0  0  0  0  0  0  0  0
   10.3030  -35.4050  -34.3970 C   0  0  0  0  0  0  0  0  0  0  0  0
    5.2910  -36.0020  -37.0090 O   0  0  0  0  0  0  0  0  0  0  0  0
   11.3730  -32.0900  -26.7250 O   0  0  0  0  0  0  0  0  0  0  0  0
    7.6680  -32.9340  -32.2170 O   0  0  0  0  0  0  0  0  0  0  0  0
   12.4970  -33.4320  -29.7380 C   0  0  0  0  0  0  0  0  0  0  0  0
   12.1930  -32.3380  -27.5090 N   0  0  0  0  0  0  0  0  0  0  0  0
    4.2410  -33.3100  -37.4930 C   0  0  0  0  0  0  0  0  0  0  0  0
    6.7580  -34.0450  -34.2730 C   0  0  2  0  0  0  0  0  0  0  0  0
   10.9310  -34.4830  -33.3830 C   0  0  0  0  0  0  0  0  0  0  0  0
    5.6630  -34.7440  -35.1080 N   0  0  0  0  0  0  0  0  0  0  0  0
   11.7330  -32.6960  -28.7980 C   0  0  0  0  0  0  0  0  0  0  0  0
    6.1060  -35.3650  -36.2320 C   0  0  0  0  0  0  0  0  0  0  0  0
    4.9920  -32.7940  -33.0050 C   0  0  0  0  0  0  0  0  0  0  0  0
    5.6110  -31.3050  -31.0370 O   0  0  0  0  0  0  0  0  0  0  0  0
    8.6560  -33.7210  -32.8530 C   0  0  0  0  0  0  0  0  0  0  0  0
   11.9480  -33.7930  -30.9900 C   0  0  0  0  0  0  0  0  0  0  0  0
   10.6150  -33.4210  -31.3210 C   0  0  0  0  0  0  0  0  0  0  0  0
    8.3250  -35.9280  -35.3640 C   0  0  0  0  0  0  0  0  0  0  0  0
  1 23  2  0
  2 30  1  1
  2 13  1  0
  2  9  1  0
  4  1  1  0
  5 26  1  0
  6 24  1  0
  6 30  1  0
  8  7  1  0
  9 27  2  0
  8 10  1  6
 11 29  1  0
 12 25  1  1
 12 16  1  0
 13 21  1  0
 14 24  2  0
 17 23  1  0
 18  3  1  0
 18 15  2  0
 19  8  1  0
 20  9  1  0
 20 12  1  0
 21 11  1  0
 22  7  1  0
 20 22  1  1
 23 18  1  0
 24 22  1  0
 25  5  1  0
 27 11  1  0
 27 16  1  0
 28 17  2  0
 29 28  1  0
 29  4  2  0
M  CHG  2   3  -1  18   1
M  END
$$$$

     RDKit          3D

 27 32  0  0  0  0  0  0  0  0999 V2000
    4.8500  -33.6710  -33.9700 C   0  0  0  0  0  0  0  0  0  0  0  0
    9.6310  -32.9490  -32.8430 C   0  0  0  0  0  0  0  0  0  0  0  0
   11.0490  -35.5300  -34.1580 C   0  0  0  0  0  0  0  0  0  0  0  0
    9.0580  -35.4630  -34.1140 C   0  0  2  0  0  0  0  0  0  0  0  0
    5.8520  -32.2170  -32.3880 C   0  0  2  0  0  0  0  0  0  0  0  0
    7.8530  -31.8820  -31.3180 C   0  0  0  0  0  0  0  0  0  0  0  0
    7.0290  -35.0460  -34.6110 C   0  0  0  0  0  0  0  0  0  0  0  0
    6.3680  -33.2190  -33.0560 C   0  0  2  0  0  0  0  0  0  0  0  0
    7.6820  -33.9550  -32.0610 C   0  0  0  0  0  0  0  0  0  0  0  0
    8.4340  -32.7810  -31.6270 N   0  0  0  0  0  0  0  0  0  0  0  0
    5.9920  -33.9260  -33.7510 C   0  0  1  0  0  0  0  0  0  0  0  0
   10.6950  -34.1740  -32.2310 C   0  0  1  0  0  0  0  0  0  0  0  0
   11.2620  -34.1690  -31.7230 C   0  0  0  0  0  0  0  0  0  0  0  0
   10.0840  -35.5320  -33.4980 C   0  0  2  0  0  0  0  0  0  0  0  0
    8.4680  -33.0330  -32.9420 C   0  0  0  0  0  0  0  0  0  0  0  0
    4.0590  -33.0640  -33.3670 C   0  0  0  0  0  0  0  0  0  0  0  0
    9.9210  -34.6600  -32.6690 C   0  0  0  0  0  0  0  0  0  0  0  0
    9.6550  -34.7160  -33.4530 C   0  0  2  0  0  0  0  0  0  0  0  0
   10.0480  -36.3980  -32.9130 O   0  0  0  0  0  0  0  0  0  0  0  0
    6.5150  -35.3290  -35.3330 O   0  0  0  0  0  0  0  0  0  0  0  0
    9.1900  -32.1440  -31.6970 C   0  0  0  0  0  0  0  0  0  0  0  0
   10.3450  -33.5800  -31.4480 C   0  0  0  0  0  0  0  0  0  0  0  0
    6.5840  -31.7400  -31.2610 C   0  0  0  0  0  0  0  0  0  0  0  0
    9.1280  -32.9550  -31.9590 C   0  0  1  0  0  0  0  0  0  0  0  0
    7.9750  -35.2310  -33.9120 C   0  0  2  0  0  0  0  0  0  0  0  0
    7.2190  -33.9920  -32.9470 C   0  0  1  0  0  0  0  0  0  0  0  0
    4.4710  -32.2890  -32.2620 C   0  0  0  0  0  0  0  0  0  0  0  0
 11  1  1  1
  1 16  2  0
 24  2  1  1
 14  3  1  6
  4 25  1  1
  4 14  1  0
  4 18  1  0
  5 27  1  0
  5 23  1  1
  6 23  1  0
 25  7  1  6
  7 11  1  0
  8 26  1  0
  8  5  1  1
 10  6  1  0
 11  8  1  0
 11 26  1  0
 12 13  1  1
 12 22  1  0
 14 18  1  0
 14 19  1  0
 15  2  1  0
 15 24  1  0
 16 27  1  0
 17 12  1  0
 18 17  1  1
 20  7  2  0
 21 10  1  0
 24 21  1  0
 24 10  1  0
 25 26  1  0
 26  9  1  1
M  END
$$$$

     RDKit          3D

 31 34  0  0  0  0  0  0  0  0999 V2000
    8.3390  -37.2800  -34.3150 C   0  0  0  0  0  0  0  0  0  0  0  0
   10.2050  -33.3330  -32.4870 C   0  0  0  0  0  0  0  0  0  0  0  0
    4.5890  -35.4490  -35.8890 C   0  0  1  0  0  0  0  0  0  0  0  0
   11.7650  -32.1680  -28.3260 C   0  0  0  0  0  0  0  0  0  0  0  0
    5.8580  -33.6890  -34.3010 O   0  0  0  0  0  0  0  0  0  0  0  0
    3.7530  -34.2890  -35.4230 C   0  0  0  0  0  0  0  0  0  0  0  0
    1.6440  -35.0610  -36.5610 N   0  0  0  0  0  0  0  0  0  0  0  0
    7.0070  -31.9160  -32.8460 C   0  0  0  0  0  0  0  0  0  0  0  0
    9.0250  -32.9840  -31.9370 C   0  0  2  0  0  0  0  0  0  0  0  0
    8.0790  -31.7540  -30.1980 O   0  0  0  0  0  0  0  0  0  0  0  0
   10.1660  -32.5210  -29.9550 C   0  0  0  0  0  0  0  0  0  0  0  0
    7.8250  -33.0860  -32.6780 C   0  0  2  0  0  0  0  0  0  0  0  0
    2.6940  -36.2170  -37.1650 C   0  0  0  0  0  0  0  0  0  0  0  0
    9.0520  -32.3960  -30.6620 C   0  0  0  0  0  0  0  0  0  0  0  0
   11.3910  -33.2900  -31.7480 C   0  0  0  0  0  0  0  0  0  0  0  0
    7.1150  -35.5060  -35.1550 C   0  0  0  0  0  0  0  0  0  0  0  0
    8.3760  -36.2010  -34.9380 C   0  0  0  0  0  0  0  0  0  0  0  0
    9.6860  -35.6920  -35.1070 C   0  0  0  0  0  0  0  0  0  0  0  0
   12.6390  -33.6390  -32.3220 C   0  0  0  0  0  0  0  0  0  0  0  0
   11.4370  -35.4640  -33.2970 O   0  0  0  0  0  0  0  0  0  0  0  0
   10.9030  -36.0030  -34.2940 C   0  0  0  0  0  0  0  0  0  0  0  0
   10.3380  -32.0190  -28.6430 C   0  0  0  0  0  0  0  0  0  0  0  0
   12.3430  -34.3860  -33.5860 C   0  0  0  0  0  0  0  0  0  0  0  0
    7.9590  -33.8420  -33.9450 O   0  0  0  0  0  0  0  0  0  0  0  0
    6.9960  -34.3360  -34.5000 C   0  0  0  0  0  0  0  0  0  0  0  0
   11.3820  -36.8080  -34.5990 O   0  0  0  0  0  0  0  0  0  0  0  0
    3.8020  -36.2110  -36.8710 C   0  0  0  0  0  0  0  0  0  0  0  0
   12.1790  -33.0780  -29.5800 O   0  0  0  0  0  0  0  0  0  0  0  0
    5.9570  -35.9970  -35.7540 C   0  0  0  0  0  0  0  0  0  0  0  0
   11.2690  -32.9690  -30.4730 C   0  0  0  0  0  0  0  0  0  0  0  0
    2.6540  -33.9930  -36.3550 C   0  0  0  0  0  0  0  0  0  0  0  0
  2 15  2  0
  3 29  1  0
  3  6  1  6
  7 31  1  0
  9  2  1  0
  9 14  1  6
 11 22  1  0
 12  8  1  6
 12  9  1  0
 13 27  2  0
 13  7  1  0
 14 10  2  0
 14 11  1  0
 15 30  1  0
 16 17  1  0
 16 25  1  0
 17  1  2  0
 18 17  1  0
 18 21  1  0
 19 15  1  0
 21 20  1  0
 22  4  1  0
 23 20  1  0
 23 19  1  0
 24 12  1  0
 25  5  2  0
 25 24  1  0
 26 21  2  0
 27  3  1  0
 28  4  1  0
 29 16  2  3
 30 11  2  0
 30 28  1  0
 31  6  1  0
M  END
$$$$

     RDKit          3D

 16 19  0  0  0  0  0  0  0  0999 V2000
    7.6240  -34.9450  -34.3430 C   0  0  2  0  0  0  0  0  0  0  0  0
    5.7940  -33.1330  -33.5590 C   0  0  0  0  0  0  0  0  0  0  0  0
    7.2770  -31.7470  -32.0700 Cl  0  0  0  0  0  0  0  0  0  0  0  0
    8.9490  -33.7970  -32.6120 C   0  0  2  0  0  0  0  0  0  0  0  0
    5.6690  -34.1290  -34.5660 C   0  0  0  0  0  0  0  0  0  0  0  0
   11.6630  -32.2270  -29.3990 O   0  0  0  0  0  0  0  0  0  0  0  0
   11.1060  -33.2540  -32.6200 C   0  0  0  0  0  0  0  0  0  0  0  0
    9.9860  -33.4130  -30.4550 C   0  0  0  0  0  0  0  0  0  0  0  0
   11.3010  -33.2840  -30.3230 C   0  0  1  0  0  0  0  0  0  0  0  0
   12.1820  -33.3250  -31.5510 C   0  0  0  0  0  0  0  0  0  0  0  0
    9.7180  -35.8280  -33.9970 N   0  0  0  0  0  0  0  0  0  0  0  0
    9.8900  -33.8780  -31.8250 C   0  0  1  0  0  0  0  0  0  0  0  0
    7.0010  -32.9080  -33.0980 C   0  0  1  0  0  0  0  0  0  0  0  0
    6.6140  -34.9680  -34.9520 C   0  0  0  0  0  0  0  0  0  0  0  0
    7.8650  -34.0510  -33.2420 C   0  0  1  0  0  0  0  0  0  0  0  0
    8.6780  -34.8860  -33.9260 C   0  0  2  0  0  0  0  0  0  0  0  0
  1 14  1  6
  1 16  1  0
  1 15  1  0
  2 13  1  0
  4 12  1  1
  5  2  1  0
  7 10  1  0
  8  9  1  0
  9  6  1  6
 10  9  1  0
 16 11  1  1
 12  7  1  6
 12  8  1  0
 13  3  1  1
 14  5  2  0
 15 13  1  1
 15  4  1  0
 16 15  1  0
 16  4  1  0
M  END
$$$$

     RDKit          3D

 25 30  0  0  0  0  0  0  0  0999 V2000
   11.4450  -33.0450  -29.5650 C   0  0  0  0  0  0  0  0  0  0  0  0
    4.4220  -35.4170  -36.5760 C   0  0  0  0  0  0  0  0  0  0  0  0
   11.7520  -33.0280  -33.1850 C   0  0  0  0  0  0  0  0  0  0  0  0
    5.8200  -34.2310  -34.7390 C   0  0  2  0  0  0  0  0  0  0  0  0
   11.2720  -34.2820  -33.0040 C   0  0  1  0  0  0  0  0  0  0  0  0
    3.3160  -33.2680  -37.1600 C   0  0  0  0  0  0  0  0  0  0  0  0
   12.1490  -33.8140  -30.7070 C   0  0  0  0  0  0  0  0  0  0  0  0
    8.9780  -33.8010  -33.2200 C   0  0  2  0  0  0  0  0  0  0  0  0
    8.1590  -36.1690  -34.5490 C   0  0  1  0  0  0  0  0  0  0  0  0
   11.6270  -32.8850  -28.3750 O   0  0  0  0  0  0  0  0  0  0  0  0
    4.0120  -33.3100  -36.1230 C   0  0  0  0  0  0  0  0  0  0  0  0
    6.7990  -32.5260  -33.5150 C   0  0  0  0  0  0  0  0  0  0  0  0
   11.0760  -34.5340  -31.5550 C   0  0  1  0  0  0  0  0  0  0  0  0
    7.0500  -35.0510  -34.3760 C   0  0  2  0  0  0  0  0  0  0  0  0
    9.8430  -33.8610  -31.0140 C   0  0  1  0  0  0  0  0  0  0  0  0
    3.5430  -35.3380  -37.5690 C   0  0  0  0  0  0  0  0  0  0  0  0
    5.5680  -33.1670  -33.7950 C   0  0  0  0  0  0  0  0  0  0  0  0
    6.9540  -36.1160  -35.1200 C   0  0  0  0  0  0  0  0  0  0  0  0
   10.1790  -32.8080  -30.1980 C   0  0  0  0  0  0  0  0  0  0  0  0
    2.8730  -34.2710  -37.8480 C   0  0  0  0  0  0  0  0  0  0  0  0
   10.0420  -34.5600  -33.8580 C   0  0  2  0  0  0  0  0  0  0  0  0
    8.7340  -33.6530  -31.7930 O   0  0  0  0  0  0  0  0  0  0  0  0
    9.5680  -35.9900  -34.1190 C   0  0  0  0  0  0  0  0  0  0  0  0
    4.8170  -34.3800  -35.8330 C   0  0  2  0  0  0  0  0  0  0  0  0
    7.6550  -33.7490  -33.7730 C   0  0  2  0  0  0  0  0  0  0  0  0
  1 10  2  0
  4 14  1  0
  4 17  1  1
  5  3  1  1
  5 13  1  0
  6 11  1  0
  7  1  1  0
  8 22  1  1
  9 18  1  6
  9 14  1  0
  9 23  1  0
 24 11  1  1
 13 15  1  0
 13  7  1  1
 14 18  1  1
 14 25  1  0
 15 19  1  6
 16  2  2  0
 17 12  1  0
 19  1  1  0
 20 16  1  0
 20  6  1  0
 21 23  1  1
 21  8  1  0
 21  5  1  0
 22 15  1  0
 24  2  1  0
 24  4  1  0
 25 12  1  1
 25  8  1  0
M  END
$$$$

     RDKit          3D

 25 29  0  0  0  0  0  0  0  0999 V2000
    7.9080  -34.6480  -34.1230 O   0  0  0  0  0  0  0  0  0  0  0  0
    8.9790  -33.8040  -32.3380 C   0  0  2  0  0  0  0  0  0  0  0  0
    7.6700  -35.6450  -34.5080 C   0  0  0  0  0  0  0  0  0  0  0  0
    7.1940  -31.4160  -31.0870 C   0  0  0  0  0  0  0  0  0  0  0  0
    6.7460  -34.1090  -34.0440 C   0  0  0  0  0  0  0  0  0  0  0  0
    8.0240  -33.1040  -32.3370 C   0  0  0  0  0  0  0  0  0  0  0  0
    6.0270  -31.3430  -31.6400 C   0  0  0  0  0  0  0  0  0  0  0  0
    5.8400  -35.4700  -35.4480 C   0  0  0  0  0  0  0  0  0  0  0  0
   10.0270  -33.1980  -31.1320 C   0  0  2  0  0  0  0  0  0  0  0  0
    4.7510  -35.8760  -36.3660 C   0  0  0  0  0  0  0  0  0  0  0  0
   10.9300  -34.3210  -32.9240 O   0  0  0  0  0  0  0  0  0  0  0  0
    3.2610  -34.4340  -35.2870 N   0  0  0  0  0  0  0  0  0  0  0  0
   10.6040  -34.3000  -31.8140 C   0  0  2  0  0  0  0  0  0  0  0  0
    6.9600  -35.9650  -35.5120 N   0  0  0  0  0  0  0  0  0  0  0  0
   10.6920  -35.5420  -31.1290 O   0  0  0  0  0  0  0  0  0  0  0  0
    4.3180  -33.8260  -34.4890 C   0  0  0  0  0  0  0  0  0  0  0  0
    5.7950  -34.3190  -34.5300 C   0  0  0  0  0  0  0  0  0  0  0  0
    8.1580  -32.2050  -31.3710 C   0  0  0  0  0  0  0  0  0  0  0  0
   12.4750  -33.0150  -30.4300 O   0  0  0  0  0  0  0  0  0  0  0  0
    3.5820  -35.1890  -36.3180 C   0  0  0  0  0  0  0  0  0  0  0  0
    5.9130  -32.3290  -32.6280 C   0  0  0  0  0  0  0  0  0  0  0  0
    6.9100  -33.0810  -33.0290 C   0  0  0  0  0  0  0  0  0  0  0  0
   11.1120  -33.5040  -28.8410 O   0  0  0  0  0  0  0  0  0  0  0  0
   11.2660  -33.2950  -30.0340 C   0  0  0  0  0  0  0  0  0  0  0  0
    9.5610  -32.4460  -30.8310 C   0  0  0  0  0  0  0  0  0  0  0  0
  1  5  1  0
  2  6  1  6
  2 13  1  0
  2  9  1  0
  3  1  1  0
  5 22  1  0
  6 18  2  0
  7  4  2  0
  8 17  2  0
  9 25  1  0
  9 24  1  1
 10 20  2  0
 10  8  1  0
 13 11  1  6
 12 16  2  0
 13  9  1  0
 13 15  1  0
 14  8  1  0
 14  3  1  0
 17 16  1  0
 17  5  1  0
 18  4  1  0
 18 25  1  0
 19 24  2  0
 20 12  1  0
 21  7  1  0
 22 21  2  0
 22  6  1  0
 24 23  1  0
M  END
$$$$

     RDKit          3D

 31 37  0  0  0  0  0  0  0  0999 V2000
    3.4470  -33.9560  -35.6020 C   0  0  0  0  0  0  0  0  0  0  0  0
    9.6570  -36.2780  -33.7300 C   0  0  1  0  0  0  0  0  0  0  0  0
    6.5150  -35.6270  -36.4610 C   0  0  0  0  0  0  0  0  0  0  0  0
   10.7630  -33.6710  -32.1490 C   0  0  0  0  0  0  0  0  0  0  0  0
    9.2800  -32.4480  -31.3910 N   0  0  0  0  0  0  0  0  0  0  0  0
   12.0030  -33.8570  -31.8530 C   0  0  0  0  0  0  0  0  0  0  0  0
   10.8510  -38.6920  -33.8840 C   0  0  0  0  0  0  0  0  0  0  0  0
    9.5880  -33.8940  -33.1660 C   0  0  2  0  0  0  0  0  0  0  0  0
    7.0780  -32.2310  -31.5610 C   0  0  0  0  0  0  0  0  0  0  0  0
   11.1060  -32.9420  -30.0890 C   0  0  0  0  0  0  0  0  0  0  0  0
   10.8550  -32.4930  -29.0040 O   0  0  0  0  0  0  0  0  0  0  0  0
    7.2080  -33.9360  -34.0720 N   0  0  0  0  0  0  0  0  0  0  0  0
    7.4310  -33.2030  -32.8300 C   0  0  2  0  0  0  0  0  0  0  0  0
    4.4700  -34.7170  -35.2720 C   0  0  1  0  0  0  0  0  0  0  0  0
    6.1150  -31.4510  -31.7410 C   0  0  0  0  0  0  0  0  0  0  0  0
    9.4900  -38.6330  -33.6560 C   0  0  0  0  0  0  0  0  0  0  0  0
   12.1190  -33.5170  -30.5230 N   0  0  0  0  0  0  0  0  0  0  0  0
    3.6080  -35.3650  -35.8990 C   0  0  0  0  0  0  0  0  0  0  0  0
    5.2910  -32.8820  -33.2590 C   0  0  0  0  0  0  0  0  0  0  0  0
    7.8510  -34.8650  -34.4660 C   0  0  0  0  0  0  0  0  0  0  0  0
    7.6860  -35.9480  -35.5690 C   0  0  2  0  0  0  0  0  0  0  0  0
    6.4060  -33.4550  -33.4580 C   0  0  1  0  0  0  0  0  0  0  0  0
    8.8180  -33.0480  -32.3630 C   0  0  1  0  0  0  0  0  0  0  0  0
    8.9540  -37.4200  -33.6020 C   0  0  0  0  0  0  0  0  0  0  0  0
   10.8390  -36.3180  -34.3960 C   0  0  0  0  0  0  0  0  0  0  0  0
   10.2720  -32.9340  -31.1810 C   0  0  0  0  0  0  0  0  0  0  0  0
    8.5340  -35.8290  -36.6860 C   0  0  0  0  0  0  0  0  0  0  0  0
    9.0130  -35.0330  -33.6960 N   0  0  0  0  0  0  0  0  0  0  0  0
    5.8200  -34.4790  -35.5480 C   0  0  0  0  0  0  0  0  0  0  0  0
   11.4820  -37.4680  -34.2370 C   0  0  0  0  0  0  0  0  0  0  0  0
    5.1480  -31.7560  -32.5550 C   0  0  0  0  0  0  0  0  0  0  0  0
  1 14  1  0
  2 25  1  0
  2 28  1  6
  2 24  1  0
  3 21  1  0
  3 29  1  0
  4  6  1  0
  4 26  1  0
  5 26  1  0
  6 17  1  0
  7 16  1  0
  8 23  1  0
  8  4  1  0
 10 11  2  0
 12 22  1  0
 12 13  1  0
 13 23  1  0
 13  9  1  6
 15  9  1  0
 16 24  2  0
 17 10  1  0
 18  1  1  0
 18 14  1  0
 19 31  1  0
 20 12  1  0
 20 28  1  0
 21 20  1  0
 22 19  1  6
 22 13  1  0
 23  5  1  1
 25 30  1  0
 26 10  1  0
 21 27  1  6
  8 28  1  1
 14 29  1  6
 30  7  2  0
 31 15  2  0
M  END
$$$$

     RDKit          3D

 16 18  0  0  0  0  0  0  0  0999 V2000
    7.5490  -31.5460  -30.7850 C   0  0  0  0  0  0  0  0  0  0  0  0
    9.2460  -33.4990  -32.0040 N   0  0  0  0  0  0  0  0  0  0  0  0
    5.4560  -33.0310  -33.5750 C   0  0  0  0  0  0  0  0  0  0  0  0
    8.4630  -35.0840  -34.1690 N   0  0  0  0  0  0  0  0  0  0  0  0
   10.6380  -35.2590  -32.8140 O   0  0  0  0  0  0  0  0  0  0  0  0
    5.8290  -32.2270  -32.5200 C   0  0  0  0  0  0  0  0  0  0  0  0
   10.1450  -34.3470  -32.0740 C   0  0  0  0  0  0  0  0  0  0  0  0
    9.6350  -37.2120  -33.7670 C   0  0  0  0  0  0  0  0  0  0  0  0
    7.0920  -32.4020  -32.0040 C   0  0  0  0  0  0  0  0  0  0  0  0
    9.6770  -35.7940  -33.6470 C   0  0  1  0  0  0  0  0  0  0  0  0
    5.7990  -34.6720  -35.3380 C   0  0  0  0  0  0  0  0  0  0  0  0
    4.2740  -32.9480  -34.0190 O   0  0  0  0  0  0  0  0  0  0  0  0
    7.9420  -33.3720  -32.5210 C   0  0  1  0  0  0  0  0  0  0  0  0
    6.3000  -33.9500  -34.1730 C   0  0  0  0  0  0  0  0  0  0  0  0
   10.6150  -36.5810  -34.5870 C   0  0  0  0  0  0  0  0  0  0  0  0
    7.5680  -34.1490  -33.6080 C   0  0  0  0  0  0  0  0  0  0  0  0
  3  6  1  0
  4 10  1  0
  4 16  1  0
  5  7  1  0
  6  9  2  0
  7  2  1  0
 10  8  1  1
  9  1  1  0
 10  5  1  0
 11 14  1  0
 12  3  2  0
 13 16  1  0
 13  2  1  6
 13  9  1  0
 14 16  2  0
 14  3  1  0
 15  8  1  0
 15 10  1  0
M  END
$$$$

     RDKit          3D

 21 25  0  0  0  0  0  0  0  0999 V2000
   10.7240  -35.5110  -33.7800 C   0  0  0  0  0  0  0  0  0  0  0  0
    8.4650  -32.6250  -31.4760 C   0  0  0  0  0  0  0  0  0  0  0  0
    6.6640  -32.8390  -33.5070 C   0  0  1  0  0  0  0  0  0  0  0  0
    5.8910  -36.4330  -36.2550 C   0  0  0  0  0  0  0  0  0  0  0  0
    9.1640  -33.6210  -32.2510 C   0  0  0  0  0  0  0  0  0  0  0  0
    9.1820  -35.3770  -34.0690 C   0  0  0  0  0  0  0  0  0  0  0  0
    4.9760  -34.4820  -34.7220 C   0  0  0  0  0  0  0  0  0  0  0  0
    8.5200  -34.3340  -33.3270 C   0  0  1  0  0  0  0  0  0  0  0  0
    4.0820  -35.1500  -35.4630 C   0  0  0  0  0  0  0  0  0  0  0  0
   10.6000  -33.7710  -31.8530 C   0  0  0  0  0  0  0  0  0  0  0  0
   10.2660  -32.5770  -30.0160 C   0  0  0  0  0  0  0  0  0  0  0  0
    4.8620  -31.8190  -31.5950 C   0  0  0  0  0  0  0  0  0  0  0  0
    6.3020  -34.8510  -34.6140 C   0  0  0  0  0  0  0  0  0  0  0  0
   11.3280  -34.5060  -32.8180 C   0  0  0  0  0  0  0  0  0  0  0  0
    5.4400  -32.7300  -32.6260 N   0  0  0  0  0  0  0  0  0  0  0  0
   11.0360  -33.2220  -30.7370 C   0  0  0  0  0  0  0  0  0  0  0  0
    4.6230  -36.0340  -36.3320 N   0  0  0  0  0  0  0  0  0  0  0  0
    9.1750  -32.5550  -30.2240 C   0  0  0  0  0  0  0  0  0  0  0  0
    7.1410  -32.1560  -32.1590 C   0  0  1  0  0  0  0  0  0  0  0  0
    6.7150  -35.9200  -35.2800 C   0  0  0  0  0  0  0  0  0  0  0  0
    7.2080  -34.1790  -33.7280 N   0  0  0  0  0  0  0  0  0  0  0  0
  1 14  1  0
  2 18  2  0
  3 21  1  1
  3 15  1  0
  3 19  1  0
  4 20  2  0
  5 10  2  0
  5  2  1  0
  6  1  1  0
  7 13  2  0
  8  6  1  1
  8  5  1  0
  9  7  1  0
 10 16  1  0
 13 21  1  0
 14 10  1  0
 19 15  1  1
 15 12  1  0
 16 11  2  0
 17  4  1  0
 17  9  2  0
 18 11  1  0
 19  2  1  0
 20 13  1  0
 21  8  1  0
M  END
$$$$

     RDKit          3D

 33 40  0  0  0  0  0  0  0  0999 V2000
   10.1060  -33.7930  -32.7710 C   0  0  2  0  0  0  0  0  0  0  0  0
    5.1770  -34.7850  -35.9880 N   0  0  0  0  0  0  0  0  0  0  0  0
    4.8020  -33.9960  -35.0540 C   0  0  0  0  0  0  0  0  0  0  0  0
   10.4440  -35.0090  -33.5670 C   0  0  0  0  0  0  0  0  0  0  0  0
    6.8670  -34.5770  -34.6300 C   0  0  2  0  0  0  0  0  0  0  0  0
    2.2330  -33.4750  -35.0070 O   0  0  0  0  0  0  0  0  0  0  0  0
    7.3710  -35.4060  -36.6220 O   0  0  0  0  0  0  0  0  0  0  0  0
    6.5550  -35.0150  -35.8540 C   0  0  0  0  0  0  0  0  0  0  0  0
    3.3690  -33.6650  -35.0070 C   0  0  0  0  0  0  0  0  0  0  0  0
    6.2120  -31.8350  -30.7380 C   0  0  0  0  0  0  0  0  0  0  0  0
    9.2420  -36.9190  -34.4630 C   0  0  0  0  0  0  0  0  0  0  0  0
    9.2270  -35.6000  -34.0600 C   0  0  0  0  0  0  0  0  0  0  0  0
    4.5540  -34.7720  -37.2830 C   0  0  0  0  0  0  0  0  0  0  0  0
   11.2360  -33.1540  -29.9240 C   0  0  1  0  0  0  0  0  0  0  0  0
   10.4590  -37.5920  -34.5080 C   0  0  0  0  0  0  0  0  0  0  0  0
    7.9670  -32.6880  -31.8780 O   0  0  0  0  0  0  0  0  0  0  0  0
    5.8160  -33.6920  -34.1020 C   0  0  2  0  0  0  0  0  0  0  0  0
   12.0900  -33.1870  -31.1450 C   0  0  0  0  0  0  0  0  0  0  0  0
    8.9190  -32.6180  -31.1190 C   0  0  1  0  0  0  0  0  0  0  0  0
    9.9400  -33.4380  -31.5170 C   0  0  1  0  0  0  0  0  0  0  0  0
   11.6590  -35.6100  -33.8120 C   0  0  0  0  0  0  0  0  0  0  0  0
   10.7410  -31.7230  -29.6620 C   0  0  0  0  0  0  0  0  0  0  0  0
    6.6990  -32.4610  -31.8540 C   0  0  0  0  0  0  0  0  0  0  0  0
    5.7190  -32.9620  -32.8210 C   0  0  0  0  0  0  0  0  0  0  0  0
   10.1540  -34.0810  -30.2000 C   0  0  0  0  0  0  0  0  0  0  0  0
    8.2720  -34.5460  -34.0810 C   0  0  1  0  0  0  0  0  0  0  0  0
    4.9030  -31.6360  -30.3780 C   0  0  0  0  0  0  0  0  0  0  0  0
    8.8310  -33.4300  -33.6660 O   0  0  0  0  0  0  0  0  0  0  0  0
    4.4190  -32.7040  -32.4890 C   0  0  0  0  0  0  0  0  0  0  0  0
    9.2130  -31.7400  -29.9140 C   0  0  0  0  0  0  0  0  0  0  0  0
    3.9950  -32.0790  -31.2860 C   0  0  0  0  0  0  0  0  0  0  0  0
   11.6940  -36.8940  -34.2980 C   0  0  0  0  0  0  0  0  0  0  0  0
   11.1160  -32.9410  -32.2050 C   0  0  2  0  0  0  0  0  0  0  0  0
  1 28  1  0
  1 33  1  0
  1 20  1  0
  2  8  1  0
  2  3  1  0
  3  9  2  0
  1  4  1  1
  5  8  1  6
  5 17  1  0
  5 26  1  0
  6  9  2  0
  7  8  2  0
 10 27  1  0
 11 12  1  0
 12  4  2  0
 13  2  1  0
 14 18  1  6
 14 22  1  0
 15 11  2  0
 15 32  1  0
 16 23  1  0
 16 19  1  0
 17  3  1  1
 17 24  1  0
 19 30  1  6
 20 19  1  0
 20 25  1  1
 21  4  1  0
 23 10  2  0
 24 29  2  0
 24 23  1  0
 25 14  1  0
 26 12  1  6
 26 28  1  0
 29 31  1  0
 30 22  1  0
 31 27  2  0
 32 21  2  0
 33 20  1  0
 33 18  1  1
M  END
$$$$

     RDKit          3D

 25 30  0  0  0  0  0  0  0  0999 V2000
    9.4900  -33.7060  -32.3650 C   0  0  1  0  0  0  0  0  0  0  0  0
   10.6980  -34.1220  -29.1210 O   0  0  0  0  0  0  0  0  0  0  0  0
   10.7320  -35.3580  -33.6370 C   0  0  0  0  0  0  0  0  0  0  0  0
    8.7480  -32.3370  -32.1630 C   0  0  0  0  0  0  0  0  0  0  0  0
    4.2850  -35.1540  -35.4890 C   0  0  1  0  0  0  0  0  0  0  0  0
    6.2710  -34.2750  -34.2650 C   0  0  0  0  0  0  0  0  0  0  0  0
    3.8080  -36.5140  -35.8820 C   0  0  0  0  0  0  0  0  0  0  0  0
    5.7190  -35.1310  -35.2200 C   0  0  0  0  0  0  0  0  0  0  0  0
    8.4800  -34.5330  -33.2550 C   0  0  1  0  0  0  0  0  0  0  0  0
    6.5600  -35.9520  -35.7720 O   0  0  0  0  0  0  0  0  0  0  0  0
    7.6780  -34.8860  -34.1610 C   0  0  0  0  0  0  0  0  0  0  0  0
   10.7860  -36.3480  -34.4980 O   0  0  0  0  0  0  0  0  0  0  0  0
    7.2500  -32.3740  -32.7170 C   0  0  1  0  0  0  0  0  0  0  0  0
   11.8510  -34.7640  -33.1700 C   0  0  0  0  0  0  0  0  0  0  0  0
    9.6230  -34.7810  -33.1610 C   0  0  2  0  0  0  0  0  0  0  0  0
   10.8860  -31.7990  -29.5080 C   0  0  0  0  0  0  0  0  0  0  0  0
   10.6260  -33.8440  -31.3840 C   0  0  1  0  0  0  0  0  0  0  0  0
    3.8090  -35.5300  -36.7750 C   0  0  0  0  0  0  0  0  0  0  0  0
    5.0260  -32.0550  -31.7790 C   0  0  0  0  0  0  0  0  0  0  0  0
   11.8340  -34.0420  -32.0810 C   0  0  0  0  0  0  0  0  0  0  0  0
    4.9170  -32.7870  -33.0740 C   0  0  0  0  0  0  0  0  0  0  0  0
    6.1660  -33.2690  -33.3030 N   0  0  0  0  0  0  0  0  0  0  0  0
    6.4660  -31.5410  -31.7370 C   0  0  0  0  0  0  0  0  0  0  0  0
   10.6930  -33.2980  -29.9570 C   0  0  0  0  0  0  0  0  0  0  0  0
    7.8000  -35.8350  -35.1000 N   0  0  0  0  0  0  0  0  0  0  0  0
  1  4  1  6
  1 17  1  0
  3 12  1  0
  3 14  1  0
 15  3  1  6
  5  8  1  6
  6 11  1  0
  6 22  1  0
  7  5  1  0
  8  6  2  0
  9 11  1  6
  9 15  1  0
  9  1  1  0
 10  8  1  0
 10 25  1  0
 13  4  1  1
 13 23  1  0
 14 20  2  0
 15  1  1  0
 17 24  1  6
 18  7  1  0
 18  5  1  0
 19 23  1  0
 20 17  1  0
 21 19  1  0
 22 21  1  0
 22 13  1  0
 24 16  1  0
 24  2  2  0
 25 11  2  0
M  END
$$$$

     RDKit          3D

 30 36  0  0  0  0  0  0  0  0999 V2000
    1.9370  -34.0090  -38.9180 C   0  0  0  0  0  0  0  0  0  0  0  0
    4.1110  -34.2120  -36.4160 C   0  0  2  0  0  0  0  0  0  0  0  0
   13.4230  -32.2650  -29.9820 C   0  0  0  0  0  0  0  0  0  0  0  0
   10.7060  -33.7530  -28.2760 O   0  0  0  0  0  0  0  0  0  0  0  0
    6.1150  -35.5600  -35.6180 C   0  0  0  0  0  0  0  0  0  0  0  0
   12.0160  -33.1250  -31.4580 C   0  0  2  0  0  0  0  0  0  0  0  0
    6.9730  -36.3180  -36.0480 O   0  0  0  0  0  0  0  0  0  0  0  0
    6.4920  -32.6990  -33.2510 C   0  0  0  0  0  0  0  0  0  0  0  0
    7.8620  -35.0890  -33.8820 C   0  0  0  0  0  0  0  0  0  0  0  0
   13.3580  -31.8820  -28.6180 C   0  0  0  0  0  0  0  0  0  0  0  0
    8.3690  -32.0640  -31.6490 C   0  0  0  0  0  0  0  0  0  0  0  0
    7.6680  -33.0370  -32.6490 C   0  0  0  0  0  0  0  0  0  0  0  0
    6.0560  -33.6340  -34.1800 C   0  0  0  0  0  0  0  0  0  0  0  0
    4.3270  -34.1410  -37.8960 C   0  0  0  0  0  0  0  0  0  0  0  0
    4.8280  -35.4100  -35.9180 N   0  0  0  0  0  0  0  0  0  0  0  0
    9.7900  -32.8910  -31.2590 C   0  0  1  0  0  0  0  0  0  0  0  0
   12.1610  -33.1660  -32.9330 C   0  0  0  0  0  0  0  0  0  0  0  0
   11.0470  -32.4020  -30.7900 C   0  0  1  0  0  0  0  0  0  0  0  0
    3.2550  -34.3930  -38.8480 C   0  0  0  0  0  0  0  0  0  0  0  0
   11.4820  -33.0660  -28.7140 C   0  0  0  0  0  0  0  0  0  0  0  0
    1.0870  -33.9180  -37.8130 C   0  0  0  0  0  0  0  0  0  0  0  0
    9.5760  -34.0350  -30.5760 C   0  0  0  0  0  0  0  0  0  0  0  0
   12.4450  -32.5820  -27.9470 C   0  0  0  0  0  0  0  0  0  0  0  0
    2.7180  -34.4850  -36.1820 C   0  0  0  0  0  0  0  0  0  0  0  0
   13.2700  -32.7300  -31.0260 C   0  0  2  0  0  0  0  0  0  0  0  0
    9.4330  -34.2280  -32.0910 C   0  0  1  0  0  0  0  0  0  0  0  0
    1.5150  -34.0010  -36.4560 C   0  0  0  0  0  0  0  0  0  0  0  0
    6.6270  -34.7380  -34.5440 C   0  0  0  0  0  0  0  0  0  0  0  0
   11.7340  -33.0600  -30.2260 C   0  0  1  0  0  0  0  0  0  0  0  0
    8.2420  -34.1270  -32.8670 C   0  0  0  0  0  0  0  0  0  0  0  0
  1 19  1  0
  1 21  2  0
  2 24  1  0
  2 15  1  6
  3 10  1  0
  5 28  1  0
  6 17  1  6
  6 25  1  0
  6 18  1  0
  6 29  1  0
  7  5  2  0
  8 12  2  0
  9 30  2  0
 10 23  1  0
 12 11  1  0
 13  8  1  0
 14  2  1  0
 15  5  1  0
 16 11  1  1
 16 22  1  0
 18 16  1  6
 18 29  1  0
 19 14  1  0
 20  4  2  0
 20 23  1  0
 21 27  1  0
 25 29  1  0
 25  3  1  6
 26 16  1  0
 26 22  1  1
 27 24  1  0
 28 13  2  0
 28  9  1  0
 29 20  1  1
 30 12  1  0
 30 26  1  0
M  END
$$$$

     RDKit          3D

 20 21  0  0  0  0  0  0  0  0999 V2000
    8.4500  -32.7350  -31.8810 C   0  0  0  0  0  0  0  0  0  0  0  0
    4.7560  -35.2520  -36.8250 N   0  0  0  0  0  0  0  0  0  0  0  0
   10.3680  -33.4710  -31.1110 C   0  0  2  0  0  0  0  0  0  0  0  0
    7.2030  -34.5350  -34.1870 C   0  0  0  0  0  0  0  0  0  0  0  0
    9.0120  -33.7340  -32.7780 C   0  0  1  0  0  0  0  0  0  0  0  0
   10.3920  -34.7990  -30.7320 C   0  0  0  0  0  0  0  0  0  0  0  0
    5.1640  -33.2820  -33.7640 C   0  0  0  0  0  0  0  0  0  0  0  0
    4.6580  -33.7940  -34.7410 C   0  0  0  0  0  0  0  0  0  0  0  0
    5.3950  -34.7380  -35.6410 C   0  0  0  0  0  0  0  0  0  0  0  0
   11.2710  -32.5910  -29.4400 O   0  0  0  0  0  0  0  0  0  0  0  0
    6.6250  -35.1060  -35.3520 C   0  0  0  0  0  0  0  0  0  0  0  0
    6.4440  -33.6410  -33.4580 C   0  0  0  0  0  0  0  0  0  0  0  0
   10.4270  -33.8020  -32.5640 C   0  0  2  0  0  0  0  0  0  0  0  0
    9.0210  -31.2740  -29.9490 C   0  0  0  0  0  0  0  0  0  0  0  0
    8.5600  -34.7740  -33.6920 C   0  0  0  0  0  0  0  0  0  0  0  0
   11.3870  -32.9340  -30.3950 C   0  0  0  0  0  0  0  0  0  0  0  0
    9.2430  -35.7390  -33.9180 O   0  0  0  0  0  0  0  0  0  0  0  0
   12.2550  -33.6110  -33.4680 C   0  0  0  0  0  0  0  0  0  0  0  0
    9.2010  -32.5360  -30.9870 C   0  0  1  0  0  0  0  0  0  0  0  0
   11.4320  -34.3220  -33.1750 C   0  0  0  0  0  0  0  0  0  0  0  0
  1 19  1  0
  2  9  1  0
  3 19  1  0
  3  6  1  1
  3 16  1  0
  4 15  1  0
  4 12  1  0
  5 15  1  1
  5 13  1  0
  5  1  1  0
  7 12  2  0
  8  7  1  0
  9 11  1  0
  9  8  2  0
 11  4  2  0
 13 20  1  1
 13  3  1  0
 16 10  2  0
 17 15  2  0
 18 20  2  0
 19 14  1  6
M  END
$$$$

     RDKit          3D

 18 20  0  0  0  0  0  0  0  0999 V2000
   10.8970  -34.0910  -32.6050 C   0  0  0  0  0  0  0  0  0  0  0  0
   11.4980  -33.3260  -31.1400 S   0  0  0  0  0  0  0  0  0  0  0  0
    5.3610  -34.4960  -35.3010 N   0  0  0  0  0  0  0  0  0  0  0  0
    5.9500  -33.5310  -33.5420 C   0  0  1  0  0  0  0  0  0  0  0  0
    6.6790  -32.7700  -32.6240 C   0  0  0  0  0  0  0  0  0  0  0  0
   11.7690  -34.6520  -33.3980 N   0  0  0  0  0  0  0  0  0  0  0  0
    8.6710  -32.4720  -31.4280 C   0  0  0  0  0  0  0  0  0  0  0  0
    4.4150  -33.7200  -34.8920 N   0  0  0  0  0  0  0  0  0  0  0  0
    7.6140  -31.6890  -31.1070 C   0  0  0  0  0  0  0  0  0  0  0  0
    6.4230  -31.8040  -31.7620 C   0  0  0  0  0  0  0  0  0  0  0  0
    7.6680  -33.3510  -32.9070 N   0  0  0  0  0  0  0  0  0  0  0  0
    9.2020  -34.8150  -34.1010 C   0  0  0  0  0  0  0  0  0  0  0  0
   10.0810  -35.7210  -34.5980 C   0  0  0  0  0  0  0  0  0  0  0  0
    4.8940  -33.0620  -33.9140 N   0  0  0  0  0  0  0  0  0  0  0  0
    9.5840  -34.0590  -32.9800 C   0  0  0  0  0  0  0  0  0  0  0  0
   11.4560  -35.4550  -34.3770 C   0  0  0  0  0  0  0  0  0  0  0  0
    8.6460  -33.3110  -32.3820 C   0  0  0  0  0  0  0  0  0  0  0  0
    6.4460  -34.3250  -34.5610 C   0  0  0  0  0  0  0  0  0  0  0  0
  1  2  2  0
  3  8  1  0
  3 18  1  0
  4  5  1  6
  5 10  2  0
  6  1  1  0
  7  9  2  0
  8 14  1  0
 10  9  1  0
 11  5  1  0
 11 17  2  0
 12 15  2  0
 13 16  1  0
 13 12  1  0
 14  4  1  0
 15  1  1  0
 15 17  1  0
 16  6  2  0
 17  7  1  0
 18  4  1  0
M  END
$$$$

     RDKit          3D

 35 41  0  0  0  0  0  0  0  0999 V2000
    7.5730  -35.2190  -34.0450 C   0  0  1  0  0  0  0  0  0  0  0  0
   12.3530  -33.0400  -29.2840 C   0  0  0  0  0  0  0  0  0  0  0  0
   10.8660  -33.4310  -31.3700 C   0  0  0  0  0  0  0  0  0  0  0  0
    4.3510  -33.5630  -34.0480 C   0  0  0  0  0  0  0  0  0  0  0  0
    6.6220  -35.8200  -36.2230 C   0  0  0  0  0  0  0  0  0  0  0  0
    8.8160  -31.1950  -29.5070 O   0  0  0  0  0  0  0  0  0  0  0  0
   12.8150  -33.7650  -32.7110 O   0  0  0  0  0  0  0  0  0  0  0  0
    6.5590  -33.9390  -34.1050 C   0  0  0  0  0  0  0  0  0  0  0  0
    8.7240  -34.9290  -34.4560 C   0  0  1  0  0  0  0  0  0  0  0  0
    3.2480  -34.0510  -34.8520 C   0  0  0  0  0  0  0  0  0  0  0  0
    9.6620  -37.8650  -34.0620 O   0  0  0  0  0  0  0  0  0  0  0  0
    9.6440  -34.0130  -33.3280 C   0  0  1  0  0  0  0  0  0  0  0  0
    5.4340  -35.4200  -35.5860 C   0  0  2  0  0  0  0  0  0  0  0  0
   12.9120  -33.4870  -30.3570 C   0  0  0  0  0  0  0  0  0  0  0  0
    5.0960  -35.3230  -37.5190 C   0  0  0  0  0  0  0  0  0  0  0  0
    8.4780  -31.8940  -30.3020 C   0  0  0  0  0  0  0  0  0  0  0  0
    6.3450  -32.0740  -32.6350 C   0  0  0  0  0  0  0  0  0  0  0  0
    8.8510  -36.0570  -33.4470 C   0  0  2  0  0  0  0  0  0  0  0  0
   10.0840  -34.1370  -32.1070 C   0  0  2  0  0  0  0  0  0  0  0  0
    4.0540  -32.6770  -33.1430 C   0  0  1  0  0  0  0  0  0  0  0  0
   10.4190  -32.8410  -30.0470 C   0  0  0  0  0  0  0  0  0  0  0  0
   12.1460  -33.4630  -31.4480 C   0  0  0  0  0  0  0  0  0  0  0  0
   11.0550  -34.9100  -33.9870 C   0  0  0  0  0  0  0  0  0  0  0  0
    2.7280  -32.3810  -32.7860 O   0  0  0  0  0  0  0  0  0  0  0  0
    4.9340  -32.0710  -32.4650 C   0  0  0  0  0  0  0  0  0  0  0  0
   11.2110  -32.6730  -29.1690 C   0  0  0  0  0  0  0  0  0  0  0  0
    8.6830  -33.5640  -32.4060 O   0  0  0  0  0  0  0  0  0  0  0  0
   10.5970  -35.6020  -34.5860 C   0  0  0  0  0  0  0  0  0  0  0  0
    4.3890  -35.4500  -36.0970 C   0  0  2  0  0  0  0  0  0  0  0  0
    9.2470  -32.3550  -30.2180 C   0  0  0  0  0  0  0  0  0  0  0  0
    6.5490  -35.0440  -37.4930 C   0  0  0  0  0  0  0  0  0  0  0  0
    6.9480  -32.8370  -33.2420 N   0  0  0  0  0  0  0  0  0  0  0  0
    9.7590  -36.7760  -33.3130 C   0  0  2  0  0  0  0  0  0  0  0  0
    3.5010  -34.7020  -36.0710 C   0  0  0  0  0  0  0  0  0  0  0  0
    5.5810  -34.4090  -34.5290 C   0  0  0  0  0  0  0  0  0  0  0  0
  1  8  1  1
  1 18  1  0
  2 26  2  0
  3 21  2  0
  4 20  1  0
 13  5  1  6
  7 22  1  0
  8 32  2  0
  9  1  1  1
  9 18  1  0
  9 12  1  0
 10  4  1  0
 33 11  1  6
 12 27  1  0
 12 19  1  0
 13 35  1  0
 14  2  1  0
 15 31  1  0
 29 15  1  6
 16 30  1  0
 16  6  1  0
 17 25  2  0
 18 33  1  6
 19  3  1  6
 20 24  1  1
 20 25  1  0
 21 26  1  0
 22  3  1  0
 22 14  2  0
 12 23  1  6
 27 19  1  0
 28 23  1  0
 28 33  1  0
 29 34  1  0
 29 13  1  0
 30 21  1  0
 31  5  1  0
 32 17  1  0
 34 10  1  0
 35  8  1  0
 35  4  2  0
M  END
$$$$

     RDKit          3D

 25 30  0  0  0  0  0  0  0  0999 V2000
    5.7080  -31.3500  -31.3680 C   0  0  0  0  0  0  0  0  0  0  0  0
   12.2440  -33.6110  -31.2720 O   0  0  0  0  0  0  0  0  0  0  0  0
    8.6760  -33.2810  -32.4540 N   0  0  0  0  0  0  0  0  0  0  0  0
    8.7700  -31.5380  -30.2780 C   0  0  0  0  0  0  0  0  0  0  0  0
   11.4200  -36.5530  -34.1010 O   0  0  0  0  0  0  0  0  0  0  0  0
    7.1450  -31.9330  -31.2170 C   0  0  1  0  0  0  0  0  0  0  0  0
   10.3090  -33.3430  -33.5310 C   0  0  0  0  0  0  0  0  0  0  0  0
    7.5400  -32.7430  -32.2070 C   0  0  0  0  0  0  0  0  0  0  0  0
    5.4590  -33.2330  -33.3220 C   0  0  0  0  0  0  0  0  0  0  0  0
    8.1850  -34.8410  -33.5940 C   0  0  1  0  0  0  0  0  0  0  0  0
    6.6910  -33.2150  -33.2130 C   0  0  0  0  0  0  0  0  0  0  0  0
    6.9470  -30.5680  -31.4680 C   0  0  0  0  0  0  0  0  0  0  0  0
    9.1890  -35.6400  -34.1940 C   0  0  1  0  0  0  0  0  0  0  0  0
    3.7390  -33.7280  -34.5430 C   0  0  0  0  0  0  0  0  0  0  0  0
   11.5380  -34.2680  -33.6390 C   0  0  1  0  0  0  0  0  0  0  0  0
   12.2990  -33.3720  -32.6790 C   0  0  0  0  0  0  0  0  0  0  0  0
    9.3050  -34.3380  -32.8210 C   0  0  1  0  0  0  0  0  0  0  0  0
    5.6120  -34.7790  -35.0160 C   0  0  0  0  0  0  0  0  0  0  0  0
    4.0040  -34.2470  -35.3820 C   0  0  0  0  0  0  0  0  0  0  0  0
    4.3290  -33.0890  -33.5730 C   0  0  0  0  0  0  0  0  0  0  0  0
    3.2210  -34.8760  -36.5570 C   0  0  0  0  0  0  0  0  0  0  0  0
    4.1250  -35.5130  -37.3910 O   0  0  0  0  0  0  0  0  0  0  0  0
   10.8140  -35.7870  -33.6540 C   0  0  2  0  0  0  0  0  0  0  0  0
    7.2970  -34.2550  -33.8120 C   0  0  2  0  0  0  0  0  0  0  0  0
    6.3990  -34.5300  -34.4490 C   0  0  0  0  0  0  0  0  0  0  0  0
  1  6  1  0
  3  8  1  0
 23  5  1  6
  6  4  1  6
 17  7  1  6
  8  6  1  0
  9 11  1  0
 10 17  1  0
 11  8  2  0
 12  1  1  0
 12  6  1  0
 13 23  1  1
 13 10  1  0
 13 17  1  0
 14 20  1  0
 15  7  1  0
 15 16  1  1
 16  2  1  0
 17  3  1  0
 18 25  2  0
 19 18  1  0
 19 14  2  0
 20  9  2  0
 21 19  1  0
 22 21  1  0
 23 15  1  0
 10 24  1  6
 24 11  1  0
 24 25  1  1
 25  9  1  0
M  END
$$$$

     RDKit          3D

 22 25  0  0  0  0  0  0  0  0999 V2000
   12.0980  -33.8470  -32.6830 C   0  0  0  0  0  0  0  0  0  0  0  0
    7.7780  -31.9720  -31.2550 C   0  0  0  0  0  0  0  0  0  0  0  0
    5.6730  -35.7210  -36.6530 C   0  0  0  0  0  0  0  0  0  0  0  0
    6.5120  -31.2310  -31.4590 C   0  0  0  0  0  0  0  0  0  0  0  0
    8.5990  -31.5920  -30.2590 N   0  0  0  0  0  0  0  0  0  0  0  0
   11.1230  -34.8310  -33.1710 C   0  0  0  0  0  0  0  0  0  0  0  0
    8.7490  -35.0050  -33.7510 C   0  0  0  0  0  0  0  0  0  0  0  0
    7.1500  -33.4070  -33.0400 N   0  0  0  0  0  0  0  0  0  0  0  0
   10.2890  -33.0340  -31.1800 C   0  0  0  0  0  0  0  0  0  0  0  0
    4.6280  -34.9650  -36.1380 N   0  0  0  0  0  0  0  0  0  0  0  0
    8.9820  -35.9660  -34.4060 O   0  0  0  0  0  0  0  0  0  0  0  0
    9.7450  -34.4370  -33.0030 N   0  0  0  0  0  0  0  0  0  0  0  0
   11.7830  -33.3660  -31.2440 C   0  0  0  0  0  0  0  0  0  0  0  0
    9.4070  -33.4690  -32.0820 C   0  0  0  0  0  0  0  0  0  0  0  0
    6.4730  -34.7020  -34.8020 C   0  0  0  0  0  0  0  0  0  0  0  0
    7.4790  -34.3940  -33.8610 C   0  0  0  0  0  0  0  0  0  0  0  0
   10.7140  -31.6740  -29.0690 C   0  0  0  0  0  0  0  0  0  0  0  0
    4.1930  -33.6780  -34.0800 C   0  0  0  0  0  0  0  0  0  0  0  0
    5.1320  -34.4820  -34.9750 C   0  0  0  0  0  0  0  0  0  0  0  0
    8.1550  -32.9290  -32.1180 C   0  0  0  0  0  0  0  0  0  0  0  0
    9.8090  -32.1640  -30.2250 C   0  0  0  0  0  0  0  0  0  0  0  0
    6.6460  -35.5110  -35.8800 C   0  0  0  0  0  0  0  0  0  0  0  0
  1 13  1  0
  2  5  1  0
  3 10  2  0
  3 22  1  0
  4  2  1  0
  5 21  2  0
  6 12  1  0
  6  1  1  0
  7 12  1  0
  8 20  1  0
  9 21  1  0
 10 19  1  0
 11  7  2  0
 12 14  1  0
 13  9  1  0
 14  9  2  0
 15 16  1  0
 16  7  1  0
 16  8  2  0
 19 15  2  0
 19 18  1  0
 20 14  1  0
 20  2  2  0
 21 17  1  0
 22 15  1  0
M  END
$$$$

     RDKit          3D

 22 27  0  0  0  0  0  0  0  0999 V2000
    6.3110  -34.0530  -33.6010 C   0  0  0  0  0  0  0  0  0  0  0  0
    4.5060  -34.5610  -36.6340 C   0  0  0  0  0  0  0  0  0  0  0  0
    4.1060  -32.1110  -32.4340 C   0  0  0  0  0  0  0  0  0  0  0  0
    9.3350  -36.6480  -35.1030 C   0  0  2  0  0  0  0  0  0  0  0  0
    5.0380  -33.8140  -34.4900 C   0  0  1  0  0  0  0  0  0  0  0  0
   10.0350  -34.4990  -34.1530 S   0  0  0  0  0  0  0  0  0  0  0  0
    6.1910  -34.4350  -34.4200 C   0  0  1  0  0  0  0  0  0  0  0  0
    8.9200  -37.7840  -34.1650 C   0  0  0  0  0  0  0  0  0  0  0  0
   10.2670  -36.9040  -34.0440 C   0  0  2  0  0  0  0  0  0  0  0  0
    9.7870  -35.9920  -32.8670 O   0  0  0  0  0  0  0  0  0  0  0  0
    7.4140  -33.6750  -33.1180 C   0  0  0  0  0  0  0  0  0  0  0  0
    9.6600  -33.4400  -32.1960 C   0  0  0  0  0  0  0  0  0  0  0  0
    9.1740  -32.5500  -31.6950 F   0  0  0  0  0  0  0  0  0  0  0  0
    8.6350  -34.3020  -33.0670 C   0  0  0  0  0  0  0  0  0  0  0  0
    7.7110  -35.7580  -34.6390 C   0  0  1  0  0  0  0  0  0  0  0  0
    9.0910  -35.4850  -35.0490 C   0  0  1  0  0  0  0  0  0  0  0  0
    4.4900  -32.7450  -33.7400 O   0  0  0  0  0  0  0  0  0  0  0  0
    7.0820  -34.9700  -34.1770 C   0  0  0  0  0  0  0  0  0  0  0  0
    6.4000  -35.4210  -35.4960 C   0  0  1  0  0  0  0  0  0  0  0  0
    5.3700  -35.5160  -36.4930 N   0  0  0  0  0  0  0  0  0  0  0  0
    8.7200  -35.1610  -33.6940 C   0  0  2  0  0  0  0  0  0  0  0  0
    4.1120  -33.8120  -35.4980 C   0  0  0  0  0  0  0  0  0  0  0  0
  1 11  1  0
  2 20  1  0
  2 22  1  0
  4 16  1  0
  4  8  1  1
  4  9  1  0
  5  7  1  0
  5 17  1  6
  7 18  1  0
  7  1  1  6
  8  9  1  0
  9 10  1  1
 11 14  2  0
 12 13  1  0
 14 12  1  0
 15 18  1  6
 15 21  1  0
 16 15  1  0
 16  6  1  1
 16 21  1  0
 17  3  1  0
 19 20  1  1
 19 15  1  0
 19  7  1  0
 21  6  1  6
 21 14  1  0
 22  5  1  0
M  END
$$$$

     RDKit          3D

 18 18  0  0  0  0  0  0  0  0999 V2000
    5.1800  -33.9300  -34.3830 C   0  0  0  0  0  0  0  0  0  0  0  0
    5.9640  -35.6990  -35.3690 O   0  0  0  0  0  0  0  0  0  0  0  0
   11.7690  -32.4760  -30.4810 O   0  0  0  0  0  0  0  0  0  0  0  0
    6.7350  -35.2430  -34.8610 C   0  0  0  0  0  0  0  0  0  0  0  0
    6.1500  -33.5810  -33.9500 C   0  0  0  0  0  0  0  0  0  0  0  0
   11.8010  -32.4070  -29.1790 C   0  0  1  0  0  0  0  0  0  0  0  0
   10.9800  -33.2100  -28.7610 F   0  0  0  0  0  0  0  0  0  0  0  0
   10.9800  -33.8860  -31.8380 C   0  0  0  0  0  0  0  0  0  0  0  0
    8.1190  -33.6770  -33.3920 C   0  0  0  0  0  0  0  0  0  0  0  0
    7.6940  -35.1040  -34.9050 O   0  0  0  0  0  0  0  0  0  0  0  0
    7.4330  -32.8140  -32.7140 N   0  0  0  0  0  0  0  0  0  0  0  0
    9.8870  -34.6610  -32.3600 C   0  0  0  0  0  0  0  0  0  0  0  0
    9.3680  -33.5850  -33.2180 N   0  0  0  0  0  0  0  0  0  0  0  0
    7.2720  -34.1860  -34.1070 C   0  0  2  0  0  0  0  0  0  0  0  0
    6.3290  -32.5550  -32.8250 C   0  0  0  0  0  0  0  0  0  0  0  0
   10.6420  -32.9100  -31.0780 C   0  0  0  0  0  0  0  0  0  0  0  0
    9.6280  -32.4620  -30.9220 C   0  0  0  0  0  0  0  0  0  0  0  0
   12.8570  -32.9360  -28.6470 F   0  0  0  0  0  0  0  0  0  0  0  0
  1  5  2  0
  2  4  2  0
  3  6  1  0
  5 15  1  0
  6  7  1  1
  6 18  1  0
  8 16  1  0
  9 13  1  0
  9 11  2  0
 10  4  1  0
 12  8  1  0
 13 12  1  0
 14 10  1  6
 14  5  1  0
 14  9  1  0
 15 11  1  0
 16 17  2  0
 16  3  1  0
M  END
$$$$

     RDKit          3D

 20 22  0  0  0  0  0  0  0  0999 V2000
   10.7840  -32.9940  -29.7020 N   0  0  0  0  0  0  0  0  0  0  0  0
    9.3100  -36.1240  -34.2510 C   0  0  0  0  0  0  0  0  0  0  0  0
    7.0400  -33.6090  -33.5180 O   0  0  0  0  0  0  0  0  0  0  0  0
    9.1410  -32.5160  -31.0500 C   0  0  0  0  0  0  0  0  0  0  0  0
    7.1270  -35.0340  -35.5400 C   0  0  0  0  0  0  0  0  0  0  0  0
    6.4590  -35.1310  -34.8490 C   0  0  0  0  0  0  0  0  0  0  0  0
   10.4090  -34.0120  -31.7890 C   0  0  0  0  0  0  0  0  0  0  0  0
    8.2370  -32.5820  -32.0210 C   0  0  0  0  0  0  0  0  0  0  0  0
   10.1120  -33.1280  -30.7490 C   0  0  0  0  0  0  0  0  0  0  0  0
    7.8040  -35.3010  -34.2080 C   0  0  1  0  0  0  0  0  0  0  0  0
   10.1250  -34.6460  -32.2700 C   0  0  0  0  0  0  0  0  0  0  0  0
    8.7390  -33.3900  -32.8080 C   0  0  2  0  0  0  0  0  0  0  0  0
    9.7090  -35.5520  -33.7040 C   0  0  2  0  0  0  0  0  0  0  0  0
    7.0640  -35.3890  -36.5150 C   0  0  0  0  0  0  0  0  0  0  0  0
    8.3760  -35.4340  -34.4240 C   0  0  0  0  0  0  0  0  0  0  0  0
    8.0070  -34.0930  -33.3840 C   0  0  2  0  0  0  0  0  0  0  0  0
    9.1460  -35.8570  -33.6950 C   0  0  1  0  0  0  0  0  0  0  0  0
    7.3270  -35.1220  -34.8800 C   0  0  0  0  0  0  0  0  0  0  0  0
    9.8740  -34.2530  -32.7140 C   0  0  0  0  0  0  0  0  0  0  0  0
    9.3380  -34.2920  -33.2920 C   0  0  1  0  0  0  0  0  0  0  0  0
 17  2  1  6
  4  9  2  3
  5 18  1  0
  8  4  1  0
  9  1  1  0
 10 18  1  6
 10 16  1  0
 11  7  1  0
 12  8  1  1
 13  2  1  6
 13 17  1  0
 13 20  1  0
 14  5  2  0
 15 10  1  0
 16  3  1  6
 16 20  1  0
 16 12  1  0
 17 15  1  0
 18  6  2  0
 19 11  1  0
 20 12  1  0
 20 19  1  6
M  END
$$$$

     RDKit          3D

 34 39  0  0  0  0  0  0  0  0999 V2000
    7.8750  -32.0610  -31.7450 C   0  0  0  0  0  0  0  0  0  0  0  0
    4.1150  -34.7600  -35.2190 C   0  0  0  0  0  0  0  0  0  0  0  0
   12.3820  -33.4380  -31.2110 C   0  0  0  0  0  0  0  0  0  0  0  0
   10.4450  -33.4670  -30.1670 C   0  0  0  0  0  0  0  0  0  0  0  0
    1.4840  -31.0360  -32.1470 O   0  0  0  0  0  0  0  0  0  0  0  0
    5.5170  -34.9940  -34.9300 C   0  0  0  0  0  0  0  0  0  0  0  0
   11.0300  -33.5370  -31.2400 C   0  0  0  0  0  0  0  0  0  0  0  0
    6.6490  -34.4610  -34.0670 C   0  0  0  0  0  0  0  0  0  0  0  0
    6.6530  -31.5250  -31.5410 C   0  0  0  0  0  0  0  0  0  0  0  0
    3.0200  -32.5620  -33.1440 C   0  0  0  0  0  0  0  0  0  0  0  0
   10.1890  -33.7030  -32.2890 C   0  0  2  0  0  0  0  0  0  0  0  0
    2.6710  -31.5310  -32.2050 C   0  0  1  0  0  0  0  0  0  0  0  0
   13.0520  -33.3060  -30.0900 C   0  0  0  0  0  0  0  0  0  0  0  0
    9.9450  -35.9840  -33.8760 C   0  0  2  0  0  0  0  0  0  0  0  0
    9.9420  -36.9000  -35.0160 C   0  0  0  0  0  0  0  0  0  0  0  0
    8.7420  -35.1970  -33.8060 C   0  0  0  0  0  0  0  0  0  0  0  0
   11.1800  -33.3900  -28.9980 C   0  0  0  0  0  0  0  0  0  0  0  0
    5.8180  -35.8430  -35.8910 C   0  0  0  0  0  0  0  0  0  0  0  0
    3.7830  -35.0320  -36.5550 N   0  0  0  0  0  0  0  0  0  0  0  0
    8.9550  -34.1430  -32.6920 C   0  0  0  0  0  0  0  0  0  0  0  0
    4.5130  -32.1520  -30.9380 O   0  0  0  0  0  0  0  0  0  0  0  0
    4.7370  -36.0660  -36.7850 C   0  0  0  0  0  0  0  0  0  0  0  0
    2.0600  -33.0320  -33.7350 O   0  0  0  0  0  0  0  0  0  0  0  0
    3.7150  -31.0040  -31.3520 C   0  0  0  0  0  0  0  0  0  0  0  0
    4.2960  -33.1290  -33.5900 O   0  0  0  0  0  0  0  0  0  0  0  0
    5.4550  -32.0660  -31.8570 C   0  0  2  0  0  0  0  0  0  0  0  0
    2.3870  -35.5580  -36.7550 C   0  0  0  0  0  0  0  0  0  0  0  0
   11.2290  -35.2240  -33.4480 C   0  0  0  0  0  0  0  0  0  0  0  0
    7.9120  -33.0980  -32.6560 C   0  0  0  0  0  0  0  0  0  0  0  0
    7.5880  -35.3570  -34.4210 O   0  0  0  0  0  0  0  0  0  0  0  0
   10.9930  -33.8190  -33.4720 O   0  0  0  0  0  0  0  0  0  0  0  0
    6.6520  -33.4330  -33.3270 C   0  0  0  0  0  0  0  0  0  0  0  0
    5.5340  -32.7060  -33.0400 C   0  0  1  0  0  0  0  0  0  0  0  0
   12.4660  -33.3140  -28.9540 N   0  0  0  0  0  0  0  0  0  0  0  0
  1  9  1  0
  2  6  1  0
  3 13  2  0
  4 17  1  0
  6  8  2  3
  7  3  1  0
  7  4  2  0
  8 32  1  0
 10 12  1  0
 11  7  1  1
 12  5  1  6
 12 24  1  0
 13 34  1  0
 14 15  1  6
 14 16  1  0
 14 28  1  0
 16 20  2  0
 17 34  2  0
 18  6  1  0
 19  2  1  0
 20 29  1  0
 20 11  1  0
 22 19  1  0
 22 18  1  0
 23 10  2  0
 24 21  1  0
 25 10  1  0
 26  9  1  1
 26 21  1  0
 27 19  1  0
 29  1  1  0
 30  8  1  0
 30 16  1  0
 31 28  1  0
 31 11  1  0
 32 33  1  0
 32 29  2  0
 33 25  1  1
 33 26  1  0
M  END
$$$$

     RDKit          3D

 19 21  0  0  0  0  0  0  0  0999 V2000
    4.3950  -32.4940  -32.9040 C   0  0  0  0  0  0  0  0  0  0  0  0
    9.4510  -32.8560  -30.9670 C   0  0  0  0  0  0  0  0  0  0  0  0
   10.2000  -34.9030  -32.3500 C   0  0  1  0  0  0  0  0  0  0  0  0
    9.2570  -33.7920  -31.6910 C   0  0  2  0  0  0  0  0  0  0  0  0
    3.1450  -32.6270  -33.1900 C   0  0  0  0  0  0  0  0  0  0  0  0
   10.8130  -33.3280  -31.1510 C   0  0  0  0  0  0  0  0  0  0  0  0
   10.4950  -32.8210  -30.2950 N   0  0  0  0  0  0  0  0  0  0  0  0
   11.2330  -34.8310  -32.9570 S   0  0  0  0  0  0  0  0  0  0  0  0
    7.4360  -32.9700  -32.8900 C   0  0  1  0  0  0  0  0  0  0  0  0
    5.1790  -32.6520  -33.4050 N   0  0  0  0  0  0  0  0  0  0  0  0
   10.0630  -35.3330  -33.6070 C   0  0  0  0  0  0  0  0  0  0  0  0
    8.8910  -35.0160  -33.4800 C   0  0  0  0  0  0  0  0  0  0  0  0
   10.3700  -34.1230  -32.0720 C   0  0  0  0  0  0  0  0  0  0  0  0
    7.0030  -34.4630  -34.1070 C   0  0  0  0  0  0  0  0  0  0  0  0
   10.0090  -34.8050  -32.8630 C   0  0  1  0  0  0  0  0  0  0  0  0
    8.6150  -33.6950  -32.8620 C   0  0  1  0  0  0  0  0  0  0  0  0
    8.0140  -34.5740  -33.3840 C   0  0  2  0  0  0  0  0  0  0  0  0
    6.4210  -33.6360  -33.5180 C   0  0  1  0  0  0  0  0  0  0  0  0
    7.2010  -31.7820  -32.0220 C   0  0  0  0  0  0  0  0  0  0  0  0
  2  7  1  0
  3 13  1  1
  4  6  1  6
  4  2  1  0
  5  1  2  0
  6  7  1  0
  8  3  1  0
  9 16  1  0
  9 19  1  1
 10  1  1  0
 11 12  1  0
 15 11  1  1
 17 12  1  6
 14 18  1  0
 15 16  1  0
 15  3  1  0
 16  4  1  6
 17 14  1  0
 17 16  1  0
 18 10  1  6
 18  9  1  0
M  END
$$$$

     RDKit          3D

 30 33  0  0  0  0  0  0  0  0999 V2000
   11.5700  -32.2390  -28.6060 C   0  0  0  0  0  0  0  0  0  0  0  0
   10.1560  -33.5590  -31.5310 C   0  0  0  0  0  0  0  0  0  0  0  0
    5.7420  -31.6750  -30.8090 C   0  0  0  0  0  0  0  0  0  0  0  0
    4.3550  -31.8470  -30.5510 C   0  0  0  0  0  0  0  0  0  0  0  0
    8.0810  -34.2790  -33.3580 C   0  0  0  0  0  0  0  0  0  0  0  0
    9.2070  -32.5360  -31.1060 C   0  0  0  0  0  0  0  0  0  0  0  0
    7.2620  -35.9410  -35.0160 C   0  0  0  0  0  0  0  0  0  0  0  0
   10.2390  -34.5950  -32.3820 N   0  0  0  0  0  0  0  0  0  0  0  0
    6.0260  -34.1760  -34.2880 C   0  0  0  0  0  0  0  0  0  0  0  0
    6.0310  -32.9380  -33.9810 O   0  0  0  0  0  0  0  0  0  0  0  0
   10.8310  -31.9090  -27.6370 O   0  0  0  0  0  0  0  0  0  0  0  0
    6.2030  -32.1410  -32.0260 C   0  0  0  0  0  0  0  0  0  0  0  0
   10.9550  -34.4210  -34.6690 C   0  0  0  0  0  0  0  0  0  0  0  0
   11.2070  -33.4750  -30.6460 C   0  0  0  0  0  0  0  0  0  0  0  0
    6.2960  -36.3570  -35.7420 C   0  0  0  0  0  0  0  0  0  0  0  0
    9.7510  -32.0510  -29.9190 C   0  0  0  0  0  0  0  0  0  0  0  0
    3.5450  -32.3720  -31.5030 C   0  0  0  0  0  0  0  0  0  0  0  0
    9.2490  -35.2530  -33.1010 C   0  0  0  0  0  0  0  0  0  0  0  0
   10.8750  -32.6200  -29.6990 C   0  0  0  0  0  0  0  0  0  0  0  0
   11.3340  -34.2930  -33.1960 C   0  0  0  0  0  0  0  0  0  0  0  0
    3.9790  -36.2280  -36.4250 F   0  0  0  0  0  0  0  0  0  0  0  0
    7.9580  -33.1950  -32.9490 C   0  0  0  0  0  0  0  0  0  0  0  0
    5.4040  -32.6090  -32.8880 C   0  0  0  0  0  0  0  0  0  0  0  0
   12.7570  -32.2470  -28.4600 O   0  0  0  0  0  0  0  0  0  0  0  0
    4.9820  -34.5650  -34.9840 C   0  0  0  0  0  0  0  0  0  0  0  0
    4.0290  -32.7300  -32.6920 C   0  0  0  0  0  0  0  0  0  0  0  0
    5.0940  -35.6910  -35.7280 C   0  0  0  0  0  0  0  0  0  0  0  0
    9.4650  -36.3690  -33.3210 O   0  0  0  0  0  0  0  0  0  0  0  0
    7.1370  -34.8190  -34.2250 C   0  0  0  0  0  0  0  0  0  0  0  0
    7.4910  -32.1490  -32.4340 O   0  0  0  0  0  0  0  0  0  0  0  0
  1 24  2  0
  1 11  1  0
  2  6  2  0
  2 14  1  0
  3  4  2  0
  5 18  1  0
  5 22  1  0
  6 16  1  0
  7 29  2  0
  8  2  1  0
  9 29  1  0
  9 10  1  0
 10 23  1  0
 12  3  1  0
 13 20  1  0
 14 19  1  0
 15 27  2  0
 15  7  1  0
 16 19  2  0
 17  4  1  0
 18  8  1  0
 19  1  1  0
 20  8  1  0
 21 27  1  0
 22 30  1  0
 23 26  1  0
 23 12  2  0
 25  9  2  0
 26 17  2  0
 27 25  1  0
 28 18  2  0
 29  5  1  0
 30 12  1  0
M  END
$$$$

     RDKit          3D

 16 18  0  0  0  0  0  0  0  0999 V2000
   11.5020  -34.3300  -31.6400 O   0  0  0  0  0  0  0  0  0  0  0  0
    6.1820  -31.4390  -31.1050 N   0  0  0  0  0  0  0  0  0  0  0  0
    9.9380  -32.8540  -31.2390 N   0  0  0  0  0  0  0  0  0  0  0  0
    7.2670  -32.0710  -31.6070 C   0  0  0  0  0  0  0  0  0  0  0  0
    9.2280  -35.2900  -34.3190 C   0  0  0  0  0  0  0  0  0  0  0  0
    8.1950  -34.5420  -34.0760 N   0  0  0  0  0  0  0  0  0  0  0  0
   11.1300  -33.2350  -30.9380 C   0  0  0  0  0  0  0  0  0  0  0  0
    4.8790  -32.3820  -32.8060 C   0  0  0  0  0  0  0  0  0  0  0  0
    8.3560  -33.6530  -32.9910 C   0  0  0  0  0  0  0  0  0  0  0  0
    3.9420  -31.0010  -31.1380 N   0  0  0  0  0  0  0  0  0  0  0  0
    9.4900  -33.6330  -32.2970 C   0  0  0  0  0  0  0  0  0  0  0  0
   10.4590  -34.4850  -32.5810 C   0  0  0  0  0  0  0  0  0  0  0  0
    7.1880  -32.9010  -32.6010 C   0  0  0  0  0  0  0  0  0  0  0  0
    5.9950  -33.0610  -33.2700 C   0  0  0  0  0  0  0  0  0  0  0  0
    5.0350  -31.5880  -31.6760 C   0  0  0  0  0  0  0  0  0  0  0  0
   10.3610  -35.1680  -33.6240 N   0  0  0  0  0  0  0  0  0  0  0  0
  1  7  1  0
  3  7  2  0
  4  2  2  0
  5  6  1  0
  5 16  2  0
  6  9  2  0
  8 15  2  0
  9 13  1  0
  9 11  1  0
 11  3  1  0
 12 11  2  0
 12  1  1  0
 13  4  1  0
 14  8  1  0
 14 13  2  0
 15 10  1  0
 15  2  1  0
 16 12  1  0
M  END
$$$$

     RDKit          3D

 17 19  0  0  0  0  0  0  0  0999 V2000
    8.8910  -33.9170  -32.4780 C   0  0  2  0  0  0  0  0  0  0  0  0
   10.0550  -34.6260  -32.9620 N   0  0  0  0  0  0  0  0  0  0  0  0
   10.0200  -35.6780  -33.8190 C   0  0  0  0  0  0  0  0  0  0  0  0
   11.2860  -33.9480  -32.4760 C   0  0  0  0  0  0  0  0  0  0  0  0
    5.5890  -34.6910  -35.2390 C   0  0  0  0  0  0  0  0  0  0  0  0
    7.7750  -35.1090  -34.3430 C   0  0  0  0  0  0  0  0  0  0  0  0
   11.0010  -36.2910  -34.0480 O   0  0  0  0  0  0  0  0  0  0  0  0
   11.4210  -34.0690  -31.0500 C   0  0  0  0  0  0  0  0  0  0  0  0
    8.8720  -35.8300  -34.4310 N   0  0  0  0  0  0  0  0  0  0  0  0
    6.1020  -32.3590  -32.4490 O   0  0  0  0  0  0  0  0  0  0  0  0
    5.4980  -33.6910  -34.2440 C   0  0  0  0  0  0  0  0  0  0  0  0
   10.3650  -33.3300  -30.4280 C   0  0  0  0  0  0  0  0  0  0  0  0
    7.6910  -34.0620  -33.3700 C   0  0  0  0  0  0  0  0  0  0  0  0
    6.7440  -35.3550  -35.2550 C   0  0  0  0  0  0  0  0  0  0  0  0
    9.1860  -33.0770  -31.4230 C   0  0  0  0  0  0  0  0  0  0  0  0
    6.1290  -31.6330  -31.7380 C   0  0  0  0  0  0  0  0  0  0  0  0
    6.4830  -33.3630  -33.3310 C   0  0  0  0  0  0  0  0  0  0  0  0
  1 15  1  6
  2  1  1  0
  2  4  1  0
  3  2  1  0
  4  8  1  0
  5 11  1  0
  6 13  2  0
  7  3  2  0
  8 12  1  0
  9  6  1  0
  9  3  1  0
 10 16  1  0
 11 17  2  0
 13 17  1  0
 13  1  1  0
 14  5  2  0
 14  6  1  0
 15 12  1  0
 17 10  1  0
M  END
$$$$

     RDKit          3D

 21 23  0  0  0  0  0  0  0  0999 V2000
    9.6200  -33.2600  -31.8880 C   0  0  1  0  0  0  0  0  0  0  0  0
    4.6590  -34.6480  -37.2850 C   0  0  0  0  0  0  0  0  0  0  0  0
    7.8350  -32.1360  -31.5370 C   0  0  0  0  0  0  0  0  0  0  0  0
   10.0930  -34.8310  -33.6820 C   0  0  0  0  0  0  0  0  0  0  0  0
    8.8670  -33.8220  -32.9740 C   0  0  0  0  0  0  0  0  0  0  0  0
    3.9000  -32.3730  -32.1830 O   0  0  0  0  0  0  0  0  0  0  0  0
    9.5740  -35.6830  -34.4930 N   0  0  0  0  0  0  0  0  0  0  0  0
    2.8430  -33.1300  -34.0980 C   0  0  0  0  0  0  0  0  0  0  0  0
    6.8300  -33.1520  -33.2950 C   0  0  0  0  0  0  0  0  0  0  0  0
   11.9390  -33.2280  -30.9950 C   0  0  0  0  0  0  0  0  0  0  0  0
    9.1420  -32.3560  -31.0290 C   0  0  0  0  0  0  0  0  0  0  0  0
    4.4560  -33.9230  -35.8490 C   0  0  1  0  0  0  0  0  0  0  0  0
    4.0420  -32.8770  -33.3550 C   0  0  0  0  0  0  0  0  0  0  0  0
    3.2270  -33.7640  -35.3610 C   0  0  0  0  0  0  0  0  0  0  0  0
    6.8600  -32.4520  -32.2560 C   0  0  0  0  0  0  0  0  0  0  0  0
    6.3990  -33.6310  -33.9620 C   0  0  2  0  0  0  0  0  0  0  0  0
    5.5760  -33.9170  -35.0590 C   0  0  2  0  0  0  0  0  0  0  0  0
   11.3290  -34.3520  -33.0090 C   0  0  0  0  0  0  0  0  0  0  0  0
   10.9090  -33.7980  -31.7640 N   0  0  0  0  0  0  0  0  0  0  0  0
    5.4010  -33.0780  -33.9640 C   0  0  1  0  0  0  0  0  0  0  0  0
    7.6360  -34.0420  -33.6990 C   0  0  0  0  0  0  0  0  0  0  0  0
  1 19  1  0
  1 11  1  1
  3 11  1  0
  4 18  1  0
  4  5  1  0
  5  1  1  0
  7  4  2  0
  8 13  1  0
  9 15  1  0
 12  2  1  1
 12 14  1  0
 17 12  1  1
 13  6  2  0
 14  8  1  0
 15  3  1  0
 16  9  1  6
 17 20  1  0
 17 16  1  0
 18 19  1  0
 19 10  1  0
 20 16  1  0
 20 13  1  1
 21  9  2  0
M  END
$$$$

     RDKit          3D

 29 34  0  0  0  0  0  0  0  0999 V2000
    3.5510  -31.9100  -32.0400 C   0  0  0  0  0  0  0  0  0  0  0  0
   10.6170  -36.6680  -34.4030 C   0  0  0  0  0  0  0  0  0  0  0  0
    5.6520  -32.4920  -32.6280 C   0  0  0  0  0  0  0  0  0  0  0  0
    3.9330  -34.2220  -37.4040 C   0  0  2  0  0  0  0  0  0  0  0  0
    2.8500  -35.0680  -38.0380 C   0  0  0  0  0  0  0  0  0  0  0  0
    6.7000  -34.0330  -34.2880 C   0  0  0  0  0  0  0  0  0  0  0  0
    5.6160  -34.2570  -35.1660 C   0  0  2  0  0  0  0  0  0  0  0  0
    8.9410  -33.7280  -32.7440 C   0  0  0  0  0  0  0  0  0  0  0  0
   10.1820  -35.4330  -33.6790 C   0  0  2  0  0  0  0  0  0  0  0  0
    9.0220  -34.8400  -33.7380 C   0  0  0  0  0  0  0  0  0  0  0  0
    7.7220  -33.0210  -32.5030 C   0  0  0  0  0  0  0  0  0  0  0  0
    2.5130  -34.8700  -39.2030 O   0  0  0  0  0  0  0  0  0  0  0  0
    7.6490  -32.1030  -31.5580 C   0  0  0  0  0  0  0  0  0  0  0  0
    7.8880  -34.8420  -34.5140 C   0  0  0  0  0  0  0  0  0  0  0  0
    7.4990  -35.6620  -35.8650 C   0  0  0  0  0  0  0  0  0  0  0  0
    5.7910  -34.4670  -38.7360 O   0  0  0  0  0  0  0  0  0  0  0  0
    8.6150  -31.8250  -30.7950 C   0  0  0  0  0  0  0  0  0  0  0  0
    2.5220  -31.2970  -31.4430 C   0  0  0  0  0  0  0  0  0  0  0  0
    2.3970  -35.9590  -37.3090 O   0  0  0  0  0  0  0  0  0  0  0  0
    4.2770  -34.2500  -34.9090 C   0  0  0  0  0  0  0  0  0  0  0  0
    4.2530  -32.5920  -32.7450 N   0  0  0  0  0  0  0  0  0  0  0  0
    5.3610  -34.7050  -37.5240 C   0  0  1  0  0  0  0  0  0  0  0  0
    3.5560  -33.5760  -36.1770 C   0  0  0  0  0  0  0  0  0  0  0  0
    6.5760  -33.1390  -33.1450 C   0  0  0  0  0  0  0  0  0  0  0  0
    6.3570  -34.8260  -36.3790 C   0  0  1  0  0  0  0  0  0  0  0  0
   10.0110  -33.6060  -32.0270 C   0  0  0  0  0  0  0  0  0  0  0  0
    6.2510  -31.6750  -31.6520 C   0  0  0  0  0  0  0  0  0  0  0  0
   11.3640  -34.5160  -32.6670 S   0  0  0  0  0  0  0  0  0  0  0  0
    9.7700  -32.5650  -31.0740 N   0  0  0  0  0  0  0  0  0  0  0  0
  1 18  1  0
  3 27  2  0
  4  5  1  1
  4 23  1  0
  5 19  1  0
  6 24  2  0
  7 20  1  1
  7  6  1  0
  8 11  1  0
  8 26  2  0
  9  2  1  6
  9 28  1  0
 10  9  1  0
 10  8  1  0
 11 13  2  0
 12  5  2  0
 13 17  1  0
 14  6  1  0
 14 10  2  0
 15 14  1  0
 21  3  1  0
 21  1  1  0
 22 16  1  6
 22  4  1  0
 22 25  1  0
 23 20  1  0
 24  3  1  0
 24 11  1  0
 25 15  1  1
 25  7  1  0
 26 29  1  0
 27 13  1  0
 28 26  1  0
 29 17  2  0
M  END
$$$$

     RDKit          3D

 30 35  0  0  0  0  0  0  0  0999 V2000
    7.8390  -33.5050  -32.8880 C   0  0  0  0  0  0  0  0  0  0  0  0
    6.0860  -31.9820  -31.7150 C   0  0  0  0  0  0  0  0  0  0  0  0
    3.8680  -31.2350  -30.6510 C   0  0  0  0  0  0  0  0  0  0  0  0
    3.6170  -34.0700  -34.5460 C   0  0  0  0  0  0  0  0  0  0  0  0
    6.6510  -32.9470  -32.7330 C   0  0  0  0  0  0  0  0  0  0  0  0
    9.0810  -34.9600  -34.3580 C   0  0  0  0  0  0  0  0  0  0  0  0
   10.2270  -34.5640  -33.6800 C   0  0  0  0  0  0  0  0  0  0  0  0
    1.4430  -31.6340  -33.0000 C   0  0  0  0  0  0  0  0  0  0  0  0
   11.1160  -33.5730  -31.5240 C   0  0  1  0  0  0  0  0  0  0  0  0
   10.1630  -33.9070  -32.5060 C   0  0  0  0  0  0  0  0  0  0  0  0
    0.6640  -30.8800  -32.1900 C   0  0  0  0  0  0  0  0  0  0  0  0
   11.6460  -32.4010  -30.8510 F   0  0  0  0  0  0  0  0  0  0  0  0
   11.2220  -34.6510  -30.7100 F   0  0  0  0  0  0  0  0  0  0  0  0
   12.2300  -33.8250  -32.5440 C   0  0  2  0  0  0  0  0  0  0  0  0
    5.6490  -35.2060  -35.3980 C   0  0  0  0  0  0  0  0  0  0  0  0
   12.3800  -34.9710  -33.2750 F   0  0  0  0  0  0  0  0  0  0  0  0
    1.4790  -30.5090  -31.1120 O   0  0  0  0  0  0  0  0  0  0  0  0
    3.9160  -32.4590  -32.5420 C   0  0  0  0  0  0  0  0  0  0  0  0
    4.6050  -31.9670  -31.6120 N   0  0  0  0  0  0  0  0  0  0  0  0
    6.4190  -34.5590  -34.3540 C   0  0  0  0  0  0  0  0  0  0  0  0
    5.7070  -33.6560  -33.5790 C   0  0  0  0  0  0  0  0  0  0  0  0
   11.4470  -34.9200  -34.2270 C   0  0  0  0  0  0  0  0  0  0  0  0
    2.7060  -31.8460  -32.3840 C   0  0  0  0  0  0  0  0  0  0  0  0
    7.8150  -34.4280  -33.9670 C   0  0  0  0  0  0  0  0  0  0  0  0
    4.3710  -33.4370  -33.5500 C   0  0  0  0  0  0  0  0  0  0  0  0
   13.3690  -33.7600  -31.8000 F   0  0  0  0  0  0  0  0  0  0  0  0
   12.0150  -32.7870  -33.4020 F   0  0  0  0  0  0  0  0  0  0  0  0
    4.2660  -34.8680  -35.5200 C   0  0  0  0  0  0  0  0  0  0  0  0
    8.9750  -33.2840  -32.1480 N   0  0  0  0  0  0  0  0  0  0  0  0
    2.7160  -31.2070  -31.2090 N   0  0  0  0  0  0  0  0  0  0  0  0
  1  5  1  0
  1 29  2  0
  2 19  1  0
  4 25  2  0
  5  2  2  0
  6 24  2  0
  6  7  1  0
  7 10  2  0
  8 23  1  0
  8 11  2  0
  9 12  1  1
  9 13  1  0
 10 29  1  0
 10  9  1  0
 11 17  1  0
 14 26  1  1
 14  9  1  0
 15 20  1  0
 18 23  2  0
 18 19  1  0
 19  3  1  0
 20 24  1  0
 20 21  2  0
 21 25  1  0
 21  5  1  0
 22  7  1  0
 22 16  1  0
 23 30  1  0
 24  1  1  0
 25 18  1  0
 27 14  1  0
 28 15  2  0
 28  4  1  0
 30 17  1  0
 30  3  1  0
M  END
$$$$

     RDKit          3D

 18 22  0  0  0  0  0  0  0  0999 V2000
    5.9180  -31.3090  -31.3650 C   0  0  0  0  0  0  0  0  0  0  0  0
    8.8120  -35.3410  -34.5190 C   0  0  0  0  0  0  0  0  0  0  0  0
    7.7380  -32.2940  -31.5440 C   0  0  0  0  0  0  0  0  0  0  0  0
    6.7890  -34.3480  -34.2000 N   0  0  0  0  0  0  0  0  0  0  0  0
    6.8680  -32.7400  -32.4510 C   0  0  0  0  0  0  0  0  0  0  0  0
    8.6620  -33.9220  -32.8450 C   0  0  0  0  0  0  0  0  0  0  0  0
   10.2760  -32.8760  -31.2290 C   0  0  2  0  0  0  0  0  0  0  0  0
   10.6860  -36.1700  -34.1610 N   0  0  0  0  0  0  0  0  0  0  0  0
    9.6980  -32.4270  -29.8870 C   0  0  0  0  0  0  0  0  0  0  0  0
    6.9800  -31.2550  -30.6960 N   0  0  0  0  0  0  0  0  0  0  0  0
    9.0030  -32.9670  -31.7000 C   0  0  0  0  0  0  0  0  0  0  0  0
    7.6130  -35.1580  -34.7960 C   0  0  0  0  0  0  0  0  0  0  0  0
    9.3750  -34.7370  -33.4940 C   0  0  0  0  0  0  0  0  0  0  0  0
   10.9460  -32.6940  -30.2810 O   0  0  0  0  0  0  0  0  0  0  0  0
    5.6100  -32.0800  -32.3670 C   0  0  0  0  0  0  0  0  0  0  0  0
    7.3690  -33.6540  -33.2640 C   0  0  0  0  0  0  0  0  0  0  0  0
   10.5030  -35.2150  -33.3020 O   0  0  0  0  0  0  0  0  0  0  0  0
    9.7820  -36.2410  -34.8710 C   0  0  0  0  0  0  0  0  0  0  0  0
  1 10  1  0
  2 13  2  0
  3 10  2  0
  4 16  1  0
  5 15  1  0
  5  3  1  0
  6 11  2  0
  7 11  1  1
  7 14  1  0
  7  9  1  0
  8 17  1  0
 11  3  1  0
 12  2  1  0
 12  4  2  0
 13 17  1  0
 13  6  1  0
 14  9  1  0
 15  1  2  0
 16  6  1  0
 16  5  2  0
 18  2  1  0
 18  8  2  0
M  END
$$$$
