
     RDKit          3D

 19 22  0  0  0  0  0  0  0  0999 V2000
   -1.2320   -1.1500  -16.9280 C   0  0  0  0  0  0  0  0  0  0  0  0
   -3.5660   -1.8890  -17.0390 C   0  0  0  0  0  0  0  0  0  0  0  0
   -2.4540   -1.2050  -17.5460 C   0  0  0  0  0  0  0  0  0  0  0  0
   -8.2300   -2.8290  -16.5600 C   0  0  0  0  0  0  0  0  0  0  0  0
   -4.6660   -1.6230  -17.8280 C   0  0  0  0  0  0  0  0  0  0  0  0
   -6.2260   -3.0570  -15.6200 C   0  0  0  0  0  0  0  0  0  0  0  0
   -6.2680   -0.8030  -19.9490 C   0  0  0  0  0  0  0  0  0  0  0  0
   -4.1720   -0.9120  -18.9340 C   0  0  0  0  0  0  0  0  0  0  0  0
   -9.4180   -2.7930  -17.4670 C   0  0  0  0  0  0  0  0  0  0  0  0
   -2.8130   -0.6340  -18.7610 N   0  0  0  0  0  0  0  0  0  0  0  0
   -7.0980   -3.6210  -14.7620 N   0  0  0  0  0  0  0  0  0  0  0  0
   -3.4870   -2.6740  -15.9320 C   0  0  0  0  0  0  0  0  0  0  0  0
   -4.9050   -0.5680  -19.9810 N   0  0  0  0  0  0  0  0  0  0  0  0
   -6.0800   -1.8630  -17.7730 C   0  0  0  0  0  0  0  0  0  0  0  0
   -1.1150   -1.9110  -15.7530 C   0  0  0  0  0  0  0  0  0  0  0  0
   -6.8330   -2.5520  -16.7130 C   0  0  0  0  0  0  0  0  0  0  0  0
   -8.4280   -3.4740  -15.3410 N   0  0  0  0  0  0  0  0  0  0  0  0
   -6.7960   -1.4070  -18.9190 C   0  0  0  0  0  0  0  0  0  0  0  0
   -2.2220   -2.6210  -15.3030 C   0  0  0  0  0  0  0  0  0  0  0  0
  1 15  4  0
  2 12  4  0
  3  2  4  0
  3  1  4  0
  4 17  4  0
  5  8  1  0
  5 14  1  0
  5  2  1  0
  6 11  4  0
  7 18  1  0
  8 10  2  0
  9  4  1  0
 10  3  1  0
 12 19  4  0
 13  7  2  0
 13  8  1  0
 14 16  1  0
 15 19  4  0
 16  4  4  0
 16  6  4  0
 17 11  4  0
 18 14  2  0
M  END
$$$$

     RDKit          3D

 19 22  0  0  0  0  0  0  0  0999 V2000
   -1.1460   -1.0720  -16.8540 C   0  0  0  0  0  0  0  0  0  0  0  0
   -3.4850   -1.7340  -16.8630 C   0  0  0  0  0  0  0  0  0  0  0  0
   -2.4200   -1.1700  -17.4520 C   0  0  0  0  0  0  0  0  0  0  0  0
   -8.0060   -2.6980  -16.3410 C   0  0  0  0  0  0  0  0  0  0  0  0
   -4.5920   -1.5310  -17.7530 C   0  0  0  0  0  0  0  0  0  0  0  0
   -5.9940   -3.1580  -15.6290 C   0  0  0  0  0  0  0  0  0  0  0  0
   -6.2080   -0.9310  -19.9080 C   0  0  0  0  0  0  0  0  0  0  0  0
   -4.0780   -1.0160  -18.9260 C   0  0  0  0  0  0  0  0  0  0  0  0
   -9.1990   -2.1060  -16.9840 C   0  0  0  0  0  0  0  0  0  0  0  0
   -2.7950   -0.7460  -18.6840 N   0  0  0  0  0  0  0  0  0  0  0  0
   -6.9190   -3.8920  -14.9130 N   0  0  0  0  0  0  0  0  0  0  0  0
   -3.2350   -2.4710  -15.6130 C   0  0  0  0  0  0  0  0  0  0  0  0
   -4.8900   -0.6680  -19.9580 N   0  0  0  0  0  0  0  0  0  0  0  0
   -5.9570   -1.7520  -17.7010 C   0  0  0  0  0  0  0  0  0  0  0  0
   -0.9390   -1.6760  -15.6720 C   0  0  0  0  0  0  0  0  0  0  0  0
   -6.5930   -2.4620  -16.6300 C   0  0  0  0  0  0  0  0  0  0  0  0
   -8.1540   -3.5520  -15.3730 N   0  0  0  0  0  0  0  0  0  0  0  0
   -6.7790   -1.4310  -18.8070 C   0  0  0  0  0  0  0  0  0  0  0  0
   -1.9770   -2.3860  -15.0410 C   0  0  0  0  0  0  0  0  0  0  0  0
  1 15  4  0
  2 12  4  0
  3  2  4  0
  3  1  4  0
  4 17  4  0
  5  8  1  0
  5 14  1  0
  5  2  1  0
  6 11  4  0
  7 18  1  0
  8 10  2  0
  9  4  1  0
 10  3  1  0
 12 19  4  0
 13  7  2  0
 13  8  1  0
 14 16  1  0
 15 19  4  0
 16  4  4  0
 16  6  4  0
 17 11  4  0
 18 14  2  0
M  END
$$$$

     RDKit          3D

 19 22  0  0  0  0  0  0  0  0999 V2000
   -1.3260   -1.1920  -16.6140 C   0  0  0  0  0  0  0  0  0  0  0  0
   -3.6690   -1.8560  -16.7740 C   0  0  0  0  0  0  0  0  0  0  0  0
   -2.5710   -1.2970  -17.3640 C   0  0  0  0  0  0  0  0  0  0  0  0
   -8.2420   -2.9840  -16.4090 C   0  0  0  0  0  0  0  0  0  0  0  0
   -4.8610   -1.6280  -17.6560 C   0  0  0  0  0  0  0  0  0  0  0  0
   -6.2650   -3.3670  -15.5520 C   0  0  0  0  0  0  0  0  0  0  0  0
   -6.5760   -0.8580  -19.6170 C   0  0  0  0  0  0  0  0  0  0  0  0
   -4.3470   -1.0000  -18.7650 C   0  0  0  0  0  0  0  0  0  0  0  0
   -9.3160   -2.6100  -17.3100 C   0  0  0  0  0  0  0  0  0  0  0  0
   -2.9570   -0.8880  -18.6310 N   0  0  0  0  0  0  0  0  0  0  0  0
   -7.3000   -4.0090  -14.8220 N   0  0  0  0  0  0  0  0  0  0  0  0
   -3.5510   -2.3940  -15.4770 C   0  0  0  0  0  0  0  0  0  0  0  0
   -5.2510   -0.6280  -19.8070 C   0  0  0  0  0  0  0  0  0  0  0  0
   -6.2150   -1.9730  -17.5820 C   0  0  0  0  0  0  0  0  0  0  0  0
   -1.3310   -1.8150  -15.3900 C   0  0  0  0  0  0  0  0  0  0  0  0
   -6.8580   -2.7380  -16.5090 C   0  0  0  0  0  0  0  0  0  0  0  0
   -8.5350   -3.7850  -15.3650 N   0  0  0  0  0  0  0  0  0  0  0  0
   -7.0420   -1.5000  -18.5110 N   0  0  0  0  0  0  0  0  0  0  0  0
   -2.3830   -2.4150  -14.8480 N   0  0  0  0  0  0  0  0  0  0  0  0
  1 15  1  0
  2 12  1  0
  3  2  1  0
  3  1  2  0
  4 17  4  0
  5 14  4  0
  5  2  2  0
  6 11  4  0
  7 18  4  0
  8 10  2  0
  8  5  4  0
  9  4  1  0
 10  3  1  0
 12 19  2  0
 13  7  4  0
 13  8  4  0
 14 16  1  0
 15 19  1  0
 16  4  4  0
 16  6  4  0
 17 11  4  0
 18 14  4  0
M  END
$$$$

     RDKit          3D

 19 22  0  0  0  0  0  0  0  0999 V2000
   -1.0980   -1.2580  -17.0930 C   0  0  0  0  0  0  0  0  0  0  0  0
   -3.5460   -1.8080  -16.9120 C   0  0  0  0  0  0  0  0  0  0  0  0
   -2.4420   -1.1960  -17.5910 C   0  0  0  0  0  0  0  0  0  0  0  0
   -8.0370   -2.8100  -16.4130 C   0  0  0  0  0  0  0  0  0  0  0  0
   -4.6630   -1.5070  -17.7560 C   0  0  0  0  0  0  0  0  0  0  0  0
   -6.0390   -2.9320  -15.3960 N   0  0  0  0  0  0  0  0  0  0  0  0
   -6.4430   -0.5180  -19.6730 C   0  0  0  0  0  0  0  0  0  0  0  0
   -4.2030   -0.8070  -18.8440 C   0  0  0  0  0  0  0  0  0  0  0  0
   -9.2180   -2.6940  -17.3400 C   0  0  0  0  0  0  0  0  0  0  0  0
   -2.8870   -0.6260  -18.7510 N   0  0  0  0  0  0  0  0  0  0  0  0
   -7.0570   -3.5730  -14.6190 C   0  0  0  0  0  0  0  0  0  0  0  0
   -3.3480   -2.4440  -15.6440 C   0  0  0  0  0  0  0  0  0  0  0  0
   -5.0600   -0.2730  -19.7790 C   0  0  0  0  0  0  0  0  0  0  0  0
   -6.0420   -1.7600  -17.5430 C   0  0  0  0  0  0  0  0  0  0  0  0
   -0.9340   -1.9120  -15.9080 C   0  0  0  0  0  0  0  0  0  0  0  0
   -6.7140   -2.5300  -16.5180 C   0  0  0  0  0  0  0  0  0  0  0  0
   -8.2830   -3.4650  -15.2540 N   0  0  0  0  0  0  0  0  0  0  0  0
   -6.9250   -1.2110  -18.5850 C   0  0  0  0  0  0  0  0  0  0  0  0
   -2.0190   -2.4270  -15.2020 C   0  0  0  0  0  0  0  0  0  0  0  0
  1 15  1  0
  2 12  1  0
  3  1  2  0
  3  2  1  0
  4 17  4  0
  5 14  4  0
  5  2  2  0
  6 11  4  0
  7 18  4  0
  8 10  2  0
  8  5  4  0
  9  4  1  0
 10  3  1  0
 12 19  2  0
 13  7  4  0
 13  8  4  0
 14 16  1  0
 15 19  1  0
 16  4  4  0
 16  6  4  0
 17 11  4  0
 18 14  4  0
M  END
$$$$

     RDKit          3D

 19 22  0  0  0  0  0  0  0  0999 V2000
   -1.2640   -1.1490  -17.0430 C   0  0  0  0  0  0  0  0  0  0  0  0
   -3.6370   -1.7210  -16.9850 C   0  0  0  0  0  0  0  0  0  0  0  0
   -2.5170   -1.1750  -17.5740 C   0  0  0  0  0  0  0  0  0  0  0  0
   -8.1540   -2.8350  -16.5290 C   0  0  0  0  0  0  0  0  0  0  0  0
   -4.7920   -1.4800  -17.8750 C   0  0  0  0  0  0  0  0  0  0  0  0
   -5.9750   -2.7640  -15.6950 N   0  0  0  0  0  0  0  0  0  0  0  0
   -6.4850   -0.9140  -20.0820 C   0  0  0  0  0  0  0  0  0  0  0  0
   -4.3030   -0.8730  -18.9430 C   0  0  0  0  0  0  0  0  0  0  0  0
   -9.3500   -2.6610  -17.4280 C   0  0  0  0  0  0  0  0  0  0  0  0
   -2.9300   -0.7020  -18.8220 N   0  0  0  0  0  0  0  0  0  0  0  0
   -6.9650   -3.3820  -14.8890 O   0  0  0  0  0  0  0  0  0  0  0  0
   -3.3540   -2.4370  -15.7170 C   0  0  0  0  0  0  0  0  0  0  0  0
   -5.1840   -0.5730  -20.0110 C   0  0  0  0  0  0  0  0  0  0  0  0
   -6.0820   -1.8090  -17.7740 C   0  0  0  0  0  0  0  0  0  0  0  0
   -1.0350   -1.7770  -15.8460 C   0  0  0  0  0  0  0  0  0  0  0  0
   -6.8550   -2.4240  -16.6980 C   0  0  0  0  0  0  0  0  0  0  0  0
   -8.0370   -3.3490  -15.4490 N   0  0  0  0  0  0  0  0  0  0  0  0
   -6.9680   -1.5010  -18.9270 C   0  0  0  0  0  0  0  0  0  0  0  0
   -2.0720   -2.4080  -15.1880 C   0  0  0  0  0  0  0  0  0  0  0  0
  1 15  1  0
  2 12  1  0
  3  1  2  0
  3  2  1  0
  4 17  4  0
  5 14  4  0
  5  2  2  0
  6 11  4  0
  7 13  4  0
  7 18  4  0
  8 10  2  0
  8  5  4  0
  9  4  1  0
 10  3  1  0
 12 19  2  0
 13  8  4  0
 14 16  1  0
 15 19  1  0
 16  4  4  0
 16  6  4  0
 17 11  4  0
 18 14  4  0
M  END
$$$$

     RDKit          3D

 19 22  0  0  0  0  0  0  0  0999 V2000
   -1.2790   -1.4790  -16.8020 C   0  0  0  0  0  0  0  0  0  0  0  0
   -3.7110   -1.7750  -16.7450 C   0  0  0  0  0  0  0  0  0  0  0  0
   -2.5570   -1.2650  -17.4030 C   0  0  0  0  0  0  0  0  0  0  0  0
   -8.1770   -2.9770  -16.4920 C   0  0  0  0  0  0  0  0  0  0  0  0
   -4.8150   -1.5890  -17.6330 C   0  0  0  0  0  0  0  0  0  0  0  0
   -6.2600   -3.2240  -15.4370 C   0  0  0  0  0  0  0  0  0  0  0  0
   -6.4880   -0.8060  -19.7790 C   0  0  0  0  0  0  0  0  0  0  0  0
   -4.3290   -0.9240  -18.7560 C   0  0  0  0  0  0  0  0  0  0  0  0
   -9.1270   -2.6460  -17.2870 O   0  0  0  0  0  0  0  0  0  0  0  0
   -2.9730   -0.7770  -18.5400 N   0  0  0  0  0  0  0  0  0  0  0  0
   -7.2490   -3.9740  -14.7930 O   0  0  0  0  0  0  0  0  0  0  0  0
   -3.5250   -2.3770  -15.4210 C   0  0  0  0  0  0  0  0  0  0  0  0
   -5.1110   -0.4860  -19.7480 C   0  0  0  0  0  0  0  0  0  0  0  0
   -6.2040   -1.9300  -17.6330 C   0  0  0  0  0  0  0  0  0  0  0  0
   -1.1240   -1.8530  -15.5290 C   0  0  0  0  0  0  0  0  0  0  0  0
   -6.8090   -2.6450  -16.5850 C   0  0  0  0  0  0  0  0  0  0  0  0
   -8.4400   -3.7600  -15.4660 N   0  0  0  0  0  0  0  0  0  0  0  0
   -6.9820   -1.5000  -18.6970 C   0  0  0  0  0  0  0  0  0  0  0  0
   -2.2320   -2.3820  -14.8470 C   0  0  0  0  0  0  0  0  0  0  0  0
  1 15  1  0
  2 12  1  0
  3  1  2  0
  3  2  1  0
  4 17  4  0
  5 14  4  0
  5  2  2  0
  6 11  4  0
  7 13  4  0
  7 18  4  0
  8 10  2  0
  8  5  4  0
  9  4  2  0
 10  3  1  0
 12 19  2  0
 13  8  4  0
 14 16  1  0
 15 19  1  0
 16  4  4  0
 16  6  4  0
 17 11  4  0
 18 14  4  0
M  END
$$$$

     RDKit          3D

 19 22  0  0  0  0  0  0  0  0999 V2000
   -1.4920   -1.1950  -16.9350 C   0  0  0  0  0  0  0  0  0  0  0  0
   -3.7300   -1.9810  -16.9260 C   0  0  0  0  0  0  0  0  0  0  0  0
   -2.6770   -1.3430  -17.6080 C   0  0  0  0  0  0  0  0  0  0  0  0
   -8.4940   -3.2250  -16.4620 C   0  0  0  0  0  0  0  0  0  0  0  0
   -4.8860   -1.7580  -17.6640 C   0  0  0  0  0  0  0  0  0  0  0  0
   -6.5220   -3.0810  -15.3490 N   0  0  0  0  0  0  0  0  0  0  0  0
   -6.7360   -0.8710  -19.6150 N   0  0  0  0  0  0  0  0  0  0  0  0
   -4.4570   -1.1270  -18.9150 C   0  0  0  0  0  0  0  0  0  0  0  0
   -9.6140   -3.0170  -17.3720 C   0  0  0  0  0  0  0  0  0  0  0  0
   -3.1110   -0.9960  -18.8730 N   0  0  0  0  0  0  0  0  0  0  0  0
   -7.3890   -3.9830  -14.6700 N   0  0  0  0  0  0  0  0  0  0  0  0
   -3.5690   -2.5620  -15.7080 C   0  0  0  0  0  0  0  0  0  0  0  0
   -5.4060   -0.7400  -19.8170 N   0  0  0  0  0  0  0  0  0  0  0  0
   -6.3640   -1.9490  -17.5680 C   0  0  0  0  0  0  0  0  0  0  0  0
   -1.2910   -1.8410  -15.7190 C   0  0  0  0  0  0  0  0  0  0  0  0
   -7.1030   -2.7450  -16.4780 C   0  0  0  0  0  0  0  0  0  0  0  0
   -8.5810   -4.0360  -15.3480 N   0  0  0  0  0  0  0  0  0  0  0  0
   -7.0960   -1.5010  -18.5230 N   0  0  0  0  0  0  0  0  0  0  0  0
   -2.3470   -2.5000  -15.1090 C   0  0  0  0  0  0  0  0  0  0  0  0
  1 15  4  0
  2 12  4  0
  3  1  4  0
  3  2  4  0
  4 17  4  0
  5  8  1  0
  5 14  1  0
  5  2  1  0
  6 11  4  0
  7 18  1  0
  8 10  2  0
  9  4  1  0
 10  3  1  0
 12 19  4  0
 13  7  2  0
 13  8  1  0
 14 16  1  0
 15 19  4  0
 16  4  4  0
 16  6  4  0
 17 11  4  0
 18 14  2  0
M  END
$$$$

     RDKit          3D

 19 22  0  0  0  0  0  0  0  0999 V2000
   -1.2630   -1.0570  -16.8170 N   0  0  0  0  0  0  0  0  0  0  0  0
   -3.5650   -1.8360  -16.8380 C   0  0  0  0  0  0  0  0  0  0  0  0
   -2.5010   -1.1150  -17.4130 C   0  0  0  0  0  0  0  0  0  0  0  0
   -8.1730   -2.9240  -16.4290 C   0  0  0  0  0  0  0  0  0  0  0  0
   -4.6910   -1.5890  -17.6860 C   0  0  0  0  0  0  0  0  0  0  0  0
   -6.0990   -3.2060  -15.5520 N   0  0  0  0  0  0  0  0  0  0  0  0
   -6.3630   -0.8000  -19.8220 C   0  0  0  0  0  0  0  0  0  0  0  0
   -4.1720   -0.8940  -18.8050 C   0  0  0  0  0  0  0  0  0  0  0  0
   -9.3380   -2.6120  -17.2820 C   0  0  0  0  0  0  0  0  0  0  0  0
   -2.8730   -0.6680  -18.6420 N   0  0  0  0  0  0  0  0  0  0  0  0
   -7.1110   -3.7700  -14.7370 O   0  0  0  0  0  0  0  0  0  0  0  0
   -3.3400   -2.4950  -15.6040 C   0  0  0  0  0  0  0  0  0  0  0  0
   -5.0270   -0.5730  -19.8850 C   0  0  0  0  0  0  0  0  0  0  0  0
   -6.1280   -1.9360  -17.6470 C   0  0  0  0  0  0  0  0  0  0  0  0
   -1.1510   -1.7050  -15.7270 C   0  0  0  0  0  0  0  0  0  0  0  0
   -6.7460   -2.6880  -16.6050 C   0  0  0  0  0  0  0  0  0  0  0  0
   -8.3640   -3.6650  -15.2420 N   0  0  0  0  0  0  0  0  0  0  0  0
   -6.8770   -1.4720  -18.7020 C   0  0  0  0  0  0  0  0  0  0  0  0
   -2.0950   -2.4330  -15.0540 C   0  0  0  0  0  0  0  0  0  0  0  0
  1 15  4  0
  2 12  4  0
  3  2  4  0
  3  1  4  0
  4 17  4  0
  5 14  4  0
  5  2  4  0
  6 11  4  0
  7 18  4  0
  8 10  4  0
  8  5  4  0
  9  4  1  0
 10  3  4  0
 12 19  4  0
 13  7  4  0
 13  8  4  0
 14 16  1  0
 15 19  4  0
 16  4  4  0
 16  6  4  0
 17 11  4  0
 18 14  4  0
M  END
$$$$

     RDKit          3D

 19 22  0  0  0  0  0  0  0  0999 V2000
   -1.1810   -1.2440  -16.8420 C   0  0  0  0  0  0  0  0  0  0  0  0
   -3.5880   -1.9170  -16.9690 C   0  0  0  0  0  0  0  0  0  0  0  0
   -2.4620   -1.3700  -17.5070 C   0  0  0  0  0  0  0  0  0  0  0  0
   -8.1530   -2.8580  -16.5260 C   0  0  0  0  0  0  0  0  0  0  0  0
   -4.6820   -1.5870  -17.8730 C   0  0  0  0  0  0  0  0  0  0  0  0
   -6.1810   -3.0270  -15.5830 N   0  0  0  0  0  0  0  0  0  0  0  0
   -6.3050   -0.7610  -19.9570 C   0  0  0  0  0  0  0  0  0  0  0  0
   -4.2030   -0.9160  -18.9860 C   0  0  0  0  0  0  0  0  0  0  0  0
   -9.1940   -2.5550  -17.2590 C   0  0  0  0  0  0  0  0  0  0  0  0
   -2.7750   -0.7760  -18.7970 N   0  0  0  0  0  0  0  0  0  0  0  0
   -7.1430   -3.6230  -14.7820 N   0  0  0  0  0  0  0  0  0  0  0  0
   -3.4420   -2.6420  -15.7740 C   0  0  0  0  0  0  0  0  0  0  0  0
   -4.9350   -0.4700  -20.0480 N   0  0  0  0  0  0  0  0  0  0  0  0
   -6.0650   -1.8300  -17.8680 C   0  0  0  0  0  0  0  0  0  0  0  0
   -1.1410   -1.9450  -15.6020 C   0  0  0  0  0  0  0  0  0  0  0  0
   -6.7720   -2.5500  -16.7160 C   0  0  0  0  0  0  0  0  0  0  0  0
   -8.4310   -3.5070  -15.3920 N   0  0  0  0  0  0  0  0  0  0  0  0
   -6.8420   -1.3510  -18.8890 C   0  0  0  0  0  0  0  0  0  0  0  0
   -2.2140   -2.6180  -15.0750 C   0  0  0  0  0  0  0  0  0  0  0  0
  1 15  4  0
  2 12  4  0
  3  2  4  0
  3  1  4  0
  4 17  4  0
  5 14  4  0
  5  2  4  0
  6 11  4  0
  7 18  4  0
  8 10  4  0
  8  5  1  0
  9  4  1  0
 10  3  4  0
 12 19  4  0
 13  7  4  0
 13  8  4  0
 14 16  1  0
 15 19  4  0
 16  4  4  0
 16  6  4  0
 17 11  4  0
 18 14  4  0
M  END
$$$$

     RDKit          3D

 19 22  0  0  0  0  0  0  0  0999 V2000
   -1.0820   -0.8340  -17.0790 C   0  0  0  0  0  0  0  0  0  0  0  0
   -3.3420   -1.8130  -16.9020 C   0  0  0  0  0  0  0  0  0  0  0  0
   -2.4980   -1.1410  -17.5280 C   0  0  0  0  0  0  0  0  0  0  0  0
   -7.8990   -2.9570  -16.4110 C   0  0  0  0  0  0  0  0  0  0  0  0
   -4.6290   -1.6840  -17.6690 C   0  0  0  0  0  0  0  0  0  0  0  0
   -5.9820   -3.0510  -15.5320 N   0  0  0  0  0  0  0  0  0  0  0  0
   -6.3670   -1.0590  -19.6980 C   0  0  0  0  0  0  0  0  0  0  0  0
   -4.3090   -0.9810  -18.6810 C   0  0  0  0  0  0  0  0  0  0  0  0
   -8.9590   -2.6280  -17.2150 C   0  0  0  0  0  0  0  0  0  0  0  0
   -3.0260   -0.7010  -18.5200 N   0  0  0  0  0  0  0  0  0  0  0  0
   -6.8120   -3.7460  -14.8230 N   0  0  0  0  0  0  0  0  0  0  0  0
   -2.9780   -2.3850  -15.6740 C   0  0  0  0  0  0  0  0  0  0  0  0
   -5.1080   -0.7230  -19.5430 C   0  0  0  0  0  0  0  0  0  0  0  0
   -5.9260   -1.9550  -17.6370 C   0  0  0  0  0  0  0  0  0  0  0  0
   -0.7070   -1.3290  -15.8550 C   0  0  0  0  0  0  0  0  0  0  0  0
   -6.5450   -2.5680  -16.4950 C   0  0  0  0  0  0  0  0  0  0  0  0
   -8.0280   -3.7080  -15.3260 N   0  0  0  0  0  0  0  0  0  0  0  0
   -6.8530   -1.6310  -18.6190 C   0  0  0  0  0  0  0  0  0  0  0  0
   -1.7090   -2.1840  -15.1870 C   0  0  0  0  0  0  0  0  0  0  0  0
  1 15  1  0
  2 12  1  0
  3  1  2  0
  3  2  1  0
  4 17  4  0
  5 14  4  0
  5  2  2  0
  6 11  4  0
  7 13  4  0
  7 18  4  0
  8 10  2  0
  8  5  4  0
  9  4  1  0
 10  3  1  0
 12 19  2  0
 13  8  4  0
 14 16  1  0
 15 19  1  0
 16  4  4  0
 16  6  4  0
 17 11  4  0
 18 14  4  0
M  END
$$$$

     RDKit          3D

 19 22  0  0  0  0  0  0  0  0999 V2000
   -1.3450   -1.0930  -16.7180 C   0  0  0  0  0  0  0  0  0  0  0  0
   -3.6550   -1.8960  -16.7950 C   0  0  0  0  0  0  0  0  0  0  0  0
   -2.5490   -1.2760  -17.3820 C   0  0  0  0  0  0  0  0  0  0  0  0
   -8.2780   -2.9690  -16.5350 C   0  0  0  0  0  0  0  0  0  0  0  0
   -4.8470   -1.6960  -17.6720 C   0  0  0  0  0  0  0  0  0  0  0  0
   -6.4270   -3.1140  -15.4000 C   0  0  0  0  0  0  0  0  0  0  0  0
   -6.4910   -0.8330  -19.7490 N   0  0  0  0  0  0  0  0  0  0  0  0
   -4.2510   -0.9920  -18.8730 C   0  0  0  0  0  0  0  0  0  0  0  0
   -9.4510   -2.7170  -17.4680 C   0  0  0  0  0  0  0  0  0  0  0  0
   -2.9010   -0.8500  -18.6330 N   0  0  0  0  0  0  0  0  0  0  0  0
   -7.4260   -3.7720  -14.7930 N   0  0  0  0  0  0  0  0  0  0  0  0
   -3.5100   -2.5390  -15.5510 C   0  0  0  0  0  0  0  0  0  0  0  0
   -5.1320   -0.6140  -19.8720 C   0  0  0  0  0  0  0  0  0  0  0  0
   -6.1790   -1.9060  -17.6370 C   0  0  0  0  0  0  0  0  0  0  0  0
   -1.2010   -1.7760  -15.5200 C   0  0  0  0  0  0  0  0  0  0  0  0
   -6.9460   -2.6250  -16.5700 C   0  0  0  0  0  0  0  0  0  0  0  0
   -8.5420   -3.7480  -15.4410 N   0  0  0  0  0  0  0  0  0  0  0  0
   -6.9270   -1.3890  -18.6560 N   0  0  0  0  0  0  0  0  0  0  0  0
   -2.2650   -2.4590  -14.9250 C   0  0  0  0  0  0  0  0  0  0  0  0
  1 15  1  0
  2 12  1  0
  3  2  1  0
  3  1  2  0
  4 17  4  0
  5 14  4  0
  5  2  2  0
  6 11  4  0
  7 18  4  0
  8 10  2  0
  8  5  4  0
  9  4  1  0
 10  3  1  0
 12 19  2  0
 13  7  4  0
 13  8  4  0
 14 16  1  0
 15 19  1  0
 16  4  4  0
 16  6  4  0
 17 11  4  0
 18 14  4  0
M  END
$$$$

     RDKit          3D

 19 22  0  0  0  0  0  0  0  0999 V2000
   -1.2360   -1.3060  -17.0320 C   0  0  0  0  0  0  0  0  0  0  0  0
   -3.5360   -1.7750  -16.8960 C   0  0  0  0  0  0  0  0  0  0  0  0
   -2.4750   -1.4140  -17.5420 C   0  0  0  0  0  0  0  0  0  0  0  0
   -8.0400   -2.9200  -16.4190 C   0  0  0  0  0  0  0  0  0  0  0  0
   -4.7070   -1.6160  -17.7940 C   0  0  0  0  0  0  0  0  0  0  0  0
   -5.9670   -3.0550  -15.6250 N   0  0  0  0  0  0  0  0  0  0  0  0
   -6.5420   -0.8620  -19.7840 C   0  0  0  0  0  0  0  0  0  0  0  0
   -4.2470   -0.9710  -18.9230 C   0  0  0  0  0  0  0  0  0  0  0  0
   -9.2270   -2.6530  -17.2290 C   0  0  0  0  0  0  0  0  0  0  0  0
   -2.8620   -0.8880  -18.8240 N   0  0  0  0  0  0  0  0  0  0  0  0
   -6.8530   -3.7260  -14.7450 N   0  0  0  0  0  0  0  0  0  0  0  0
   -3.3280   -2.3560  -15.5890 C   0  0  0  0  0  0  0  0  0  0  0  0
   -5.1550   -0.6430  -19.9500 C   0  0  0  0  0  0  0  0  0  0  0  0
   -6.0960   -1.8490  -17.6800 C   0  0  0  0  0  0  0  0  0  0  0  0
   -0.9590   -1.8430  -15.7670 C   0  0  0  0  0  0  0  0  0  0  0  0
   -6.7080   -2.5740  -16.6500 C   0  0  0  0  0  0  0  0  0  0  0  0
   -8.1870   -3.6340  -15.2400 N   0  0  0  0  0  0  0  0  0  0  0  0
   -6.9430   -1.4400  -18.6520 N   0  0  0  0  0  0  0  0  0  0  0  0
   -2.0570   -2.3910  -15.0720 C   0  0  0  0  0  0  0  0  0  0  0  0
  1 15  1  0
  2 12  1  0
  3  1  2  0
  3  2  1  0
  4 17  4  0
  5 14  4  0
  5  2  2  0
  6 11  4  0
  7 18  4  0
  8 10  2  0
  8  5  4  0
  9  4  1  0
 10  3  1  0
 12 19  2  0
 13  7  4  0
 13  8  4  0
 14 16  1  0
 15 19  1  0
 16  4  4  0
 16  6  4  0
 17 11  4  0
 18 14  4  0
M  END
$$$$

     RDKit          3D

 19 22  0  0  0  0  0  0  0  0999 V2000
   -1.2050   -0.9980  -17.0890 C   0  0  0  0  0  0  0  0  0  0  0  0
   -3.6220   -1.6890  -17.1170 C   0  0  0  0  0  0  0  0  0  0  0  0
   -2.5100   -1.1160  -17.7530 C   0  0  0  0  0  0  0  0  0  0  0  0
   -8.0310   -2.8980  -16.5810 C   0  0  0  0  0  0  0  0  0  0  0  0
   -4.7870   -1.4870  -17.9980 C   0  0  0  0  0  0  0  0  0  0  0  0
   -6.0170   -2.9040  -15.8600 N   0  0  0  0  0  0  0  0  0  0  0  0
   -6.4940   -0.8350  -20.1180 C   0  0  0  0  0  0  0  0  0  0  0  0
   -4.2690   -0.9020  -19.1070 C   0  0  0  0  0  0  0  0  0  0  0  0
   -9.3750   -2.9300  -17.3340 C   0  0  0  0  0  0  0  0  0  0  0  0
   -2.9740   -0.7990  -18.9940 N   0  0  0  0  0  0  0  0  0  0  0  0
   -6.7730   -3.5460  -14.9620 N   0  0  0  0  0  0  0  0  0  0  0  0
   -3.4620   -2.3390  -15.8450 C   0  0  0  0  0  0  0  0  0  0  0  0
   -5.1400   -0.6280  -20.1210 C   0  0  0  0  0  0  0  0  0  0  0  0
   -6.1750   -1.8110  -17.9830 C   0  0  0  0  0  0  0  0  0  0  0  0
   -1.1440   -1.7610  -15.8920 C   0  0  0  0  0  0  0  0  0  0  0  0
   -6.7450   -2.4580  -16.8790 C   0  0  0  0  0  0  0  0  0  0  0  0
   -7.9470   -3.4910  -15.4490 N   0  0  0  0  0  0  0  0  0  0  0  0
   -7.0020   -1.4070  -18.9880 C   0  0  0  0  0  0  0  0  0  0  0  0
   -2.1870   -2.3160  -15.3370 C   0  0  0  0  0  0  0  0  0  0  0  0
  1 15  1  0
  2 12  1  0
  3  2  1  0
  3  1  2  0
  4 17  4  0
  5 14  4  0
  5  2  2  0
  6 11  4  0
  7 18  4  0
  8 10  2  0
  8  5  4  0
  9  4  1  0
 10  3  1  0
 12 19  2  0
 13  7  4  0
 13  8  4  0
 14 16  1  0
 15 19  1  0
 16  4  4  0
 16  6  4  0
 17 11  4  0
 18 14  4  0
M  END
$$$$

     RDKit          3D

 19 22  0  0  0  0  0  0  0  0999 V2000
   -1.4300   -1.1930  -16.6920 C   0  0  0  0  0  0  0  0  0  0  0  0
   -3.7800   -1.9840  -16.8530 C   0  0  0  0  0  0  0  0  0  0  0  0
   -2.6570   -1.3100  -17.3420 C   0  0  0  0  0  0  0  0  0  0  0  0
   -8.1340   -2.9430  -16.2500 C   0  0  0  0  0  0  0  0  0  0  0  0
   -4.8270   -1.6540  -17.7210 C   0  0  0  0  0  0  0  0  0  0  0  0
   -6.1440   -3.2480  -15.4490 N   0  0  0  0  0  0  0  0  0  0  0  0
   -6.3870   -0.8150  -19.7640 C   0  0  0  0  0  0  0  0  0  0  0  0
   -4.3140   -0.9850  -18.8690 C   0  0  0  0  0  0  0  0  0  0  0  0
   -9.1450   -2.6650  -17.0960 C   0  0  0  0  0  0  0  0  0  0  0  0
   -2.9420   -0.8200  -18.6180 N   0  0  0  0  0  0  0  0  0  0  0  0
   -7.0450   -3.8300  -14.6360 N   0  0  0  0  0  0  0  0  0  0  0  0
   -3.5740   -2.6850  -15.6290 C   0  0  0  0  0  0  0  0  0  0  0  0
   -5.0920   -0.6100  -19.8260 N   0  0  0  0  0  0  0  0  0  0  0  0
   -6.1850   -1.9490  -17.6530 C   0  0  0  0  0  0  0  0  0  0  0  0
   -1.3160   -1.8660  -15.5020 C   0  0  0  0  0  0  0  0  0  0  0  0
   -6.8280   -2.6520  -16.4420 C   0  0  0  0  0  0  0  0  0  0  0  0
   -8.2670   -3.7060  -15.0870 N   0  0  0  0  0  0  0  0  0  0  0  0
   -6.9370   -1.4780  -18.6660 C   0  0  0  0  0  0  0  0  0  0  0  0
   -2.3730   -2.6410  -14.9830 C   0  0  0  0  0  0  0  0  0  0  0  0
  1 15  4  0
  2 12  4  0
  3  2  4  0
  3  1  4  0
  4 17  4  0
  5  8  1  0
  5 14  1  0
  5  2  1  0
  6 11  4  0
  7 18  1  0
  8 10  2  0
  9  4  1  0
 10  3  1  0
 12 19  4  0
 13  7  2  0
 13  8  1  0
 14 16  1  0
 15 19  4  0
 16  4  4  0
 16  6  4  0
 17 11  4  0
 18 14  2  0
M  END
$$$$

     RDKit          3D

 19 22  0  0  0  0  0  0  0  0999 V2000
   -1.4310   -1.2260  -16.9210 C   0  0  0  0  0  0  0  0  0  0  0  0
   -3.7410   -2.0240  -16.8800 C   0  0  0  0  0  0  0  0  0  0  0  0
   -2.6840   -1.3610  -17.5780 C   0  0  0  0  0  0  0  0  0  0  0  0
   -8.3980   -3.2050  -16.5610 C   0  0  0  0  0  0  0  0  0  0  0  0
   -5.0140   -1.7440  -17.8070 C   0  0  0  0  0  0  0  0  0  0  0  0
   -6.3330   -3.2000  -15.4550 N   0  0  0  0  0  0  0  0  0  0  0  0
   -6.6380   -0.8230  -19.7160 C   0  0  0  0  0  0  0  0  0  0  0  0
   -4.4650   -1.0820  -18.8570 C   0  0  0  0  0  0  0  0  0  0  0  0
   -9.6650   -3.0510  -17.3470 C   0  0  0  0  0  0  0  0  0  0  0  0
   -3.0780   -0.9750  -18.7590 N   0  0  0  0  0  0  0  0  0  0  0  0
   -7.2920   -3.9280  -14.7130 N   0  0  0  0  0  0  0  0  0  0  0  0
   -3.5350   -2.6200  -15.5930 C   0  0  0  0  0  0  0  0  0  0  0  0
   -5.2300   -0.5830  -19.7750 C   0  0  0  0  0  0  0  0  0  0  0  0
   -6.4640   -2.0480  -17.7680 C   0  0  0  0  0  0  0  0  0  0  0  0
   -1.2720   -1.8430  -15.6210 C   0  0  0  0  0  0  0  0  0  0  0  0
   -7.0700   -2.7960  -16.6400 C   0  0  0  0  0  0  0  0  0  0  0  0
   -8.4920   -3.8660  -15.3110 N   0  0  0  0  0  0  0  0  0  0  0  0
   -7.1770   -1.6250  -18.7770 N   0  0  0  0  0  0  0  0  0  0  0  0
   -2.3030   -2.4480  -15.0230 C   0  0  0  0  0  0  0  0  0  0  0  0
  1 15  4  0
  2 12  4  0
  3  1  4  0
  3  2  4  0
  4 17  4  0
  5 14  4  0
  5  2  4  0
  6 11  4  0
  7 18  4  0
  8 10  4  0
  8  5  4  0
  9  4  1  0
 10  3  4  0
 12 19  4  0
 13  7  4  0
 13  8  4  0
 14 16  1  0
 15 19  4  0
 16  4  4  0
 16  6  4  0
 17 11  4  0
 18 14  4  0
M  END
$$$$

     RDKit          3D

 19 22  0  0  0  0  0  0  0  0999 V2000
   -1.2610   -1.1310  -17.0940 C   0  0  0  0  0  0  0  0  0  0  0  0
   -3.6530   -1.8060  -16.9520 C   0  0  0  0  0  0  0  0  0  0  0  0
   -2.5650   -1.2190  -17.6260 C   0  0  0  0  0  0  0  0  0  0  0  0
   -8.2360   -2.9680  -16.4880 C   0  0  0  0  0  0  0  0  0  0  0  0
   -4.8750   -1.6170  -17.7630 C   0  0  0  0  0  0  0  0  0  0  0  0
   -6.2090   -3.1750  -15.7030 N   0  0  0  0  0  0  0  0  0  0  0  0
   -6.6400   -0.7270  -19.9200 C   0  0  0  0  0  0  0  0  0  0  0  0
   -4.4860   -0.8360  -19.0010 C   0  0  0  0  0  0  0  0  0  0  0  0
   -9.4410   -2.8440  -17.2990 C   0  0  0  0  0  0  0  0  0  0  0  0
   -3.0650   -0.6570  -18.7630 N   0  0  0  0  0  0  0  0  0  0  0  0
   -7.1290   -3.8400  -14.8890 C   0  0  0  0  0  0  0  0  0  0  0  0
   -3.3910   -2.4660  -15.7840 C   0  0  0  0  0  0  0  0  0  0  0  0
   -5.3110   -0.4850  -20.0190 C   0  0  0  0  0  0  0  0  0  0  0  0
   -6.2990   -1.9000  -17.7480 C   0  0  0  0  0  0  0  0  0  0  0  0
   -1.0640   -1.9270  -15.9060 C   0  0  0  0  0  0  0  0  0  0  0  0
   -6.8830   -2.6500  -16.7080 C   0  0  0  0  0  0  0  0  0  0  0  0
   -8.4070   -3.7080  -15.3460 N   0  0  0  0  0  0  0  0  0  0  0  0
   -7.1330   -1.4140  -18.7850 C   0  0  0  0  0  0  0  0  0  0  0  0
   -2.1350   -2.6040  -15.2460 C   0  0  0  0  0  0  0  0  0  0  0  0
  1 15  1  0
  2 12  1  0
  3  1  2  0
  3  2  1  0
  4 17  4  0
  5 14  4  0
  5  2  2  0
  6 11  4  0
  7 18  4  0
  8 10  2  0
  8  5  4  0
  9  4  1  0
 10  3  1  0
 12 19  2  0
 13  7  4  0
 13  8  4  0
 14 16  1  0
 15 19  1  0
 16  4  4  0
 16  6  4  0
 17 11  4  0
 18 14  4  0
M  END
$$$$

     RDKit          3D

 19 22  0  0  0  0  0  0  0  0999 V2000
   -1.1210   -1.5640  -17.0150 C   0  0  0  0  0  0  0  0  0  0  0  0
   -3.5530   -1.8970  -17.0060 C   0  0  0  0  0  0  0  0  0  0  0  0
   -2.4490   -1.3460  -17.6140 C   0  0  0  0  0  0  0  0  0  0  0  0
   -8.2890   -2.7460  -16.4470 C   0  0  0  0  0  0  0  0  0  0  0  0
   -4.7750   -1.6310  -17.7860 C   0  0  0  0  0  0  0  0  0  0  0  0
   -6.2450   -2.9800  -15.5630 N   0  0  0  0  0  0  0  0  0  0  0  0
   -6.4910   -0.7980  -19.9030 C   0  0  0  0  0  0  0  0  0  0  0  0
   -4.2320   -0.9090  -18.9250 C   0  0  0  0  0  0  0  0  0  0  0  0
   -9.4540   -2.5490  -17.3260 C   0  0  0  0  0  0  0  0  0  0  0  0
   -2.8430   -0.7810  -18.8570 N   0  0  0  0  0  0  0  0  0  0  0  0
   -7.1460   -3.5020  -14.7200 N   0  0  0  0  0  0  0  0  0  0  0  0
   -3.4670   -2.5380  -15.7480 C   0  0  0  0  0  0  0  0  0  0  0  0
   -5.1180   -0.4730  -19.9050 N   0  0  0  0  0  0  0  0  0  0  0  0
   -6.3050   -1.8730  -17.7710 C   0  0  0  0  0  0  0  0  0  0  0  0
   -1.0760   -2.1360  -15.7750 C   0  0  0  0  0  0  0  0  0  0  0  0
   -6.9740   -2.4890  -16.6790 C   0  0  0  0  0  0  0  0  0  0  0  0
   -8.4320   -3.3940  -15.2350 N   0  0  0  0  0  0  0  0  0  0  0  0
   -7.0400   -1.4340  -18.8110 N   0  0  0  0  0  0  0  0  0  0  0  0
   -2.1690   -2.6330  -15.1610 C   0  0  0  0  0  0  0  0  0  0  0  0
  1 15  4  0
  2 12  4  0
  3  1  4  0
  3  2  4  0
  4 17  4  0
  5  8  1  0
  5 14  1  0
  5  2  1  0
  6 11  4  0
  7 18  1  0
  8 10  2  0
  9  4  1  0
 10  3  1  0
 12 19  4  0
 13  7  2  0
 13  8  1  0
 14 16  1  0
 15 19  4  0
 16  4  4  0
 16  6  4  0
 17 11  4  0
 18 14  2  0
M  END
$$$$

     RDKit          3D

 19 22  0  0  0  0  0  0  0  0999 V2000
   -1.1690   -1.1210  -16.8090 C   0  0  0  0  0  0  0  0  0  0  0  0
   -3.4850   -1.7370  -16.7800 C   0  0  0  0  0  0  0  0  0  0  0  0
   -2.4110   -1.1630  -17.4270 C   0  0  0  0  0  0  0  0  0  0  0  0
   -8.1340   -2.7680  -16.3200 C   0  0  0  0  0  0  0  0  0  0  0  0
   -4.6650   -1.5860  -17.7090 C   0  0  0  0  0  0  0  0  0  0  0  0
   -5.9800   -3.2190  -15.5520 C   0  0  0  0  0  0  0  0  0  0  0  0
   -6.2470   -0.9830  -19.7850 C   0  0  0  0  0  0  0  0  0  0  0  0
   -4.1420   -0.9770  -18.7780 C   0  0  0  0  0  0  0  0  0  0  0  0
   -9.2550   -2.1790  -17.0360 C   0  0  0  0  0  0  0  0  0  0  0  0
   -2.8210   -0.7220  -18.5950 N   0  0  0  0  0  0  0  0  0  0  0  0
   -6.9240   -3.8200  -14.7980 N   0  0  0  0  0  0  0  0  0  0  0  0
   -3.3130   -2.3560  -15.4960 C   0  0  0  0  0  0  0  0  0  0  0  0
   -4.9270   -0.6400  -19.8560 C   0  0  0  0  0  0  0  0  0  0  0  0
   -5.9690   -1.8720  -17.6280 C   0  0  0  0  0  0  0  0  0  0  0  0
   -1.0270   -1.7820  -15.5840 C   0  0  0  0  0  0  0  0  0  0  0  0
   -6.6090   -2.5910  -16.5330 C   0  0  0  0  0  0  0  0  0  0  0  0
   -8.2150   -3.6690  -15.2530 N   0  0  0  0  0  0  0  0  0  0  0  0
   -6.8010   -1.6230  -18.7330 C   0  0  0  0  0  0  0  0  0  0  0  0
   -2.1420   -2.3440  -14.9640 C   0  0  0  0  0  0  0  0  0  0  0  0
  1 15  1  0
  2 12  1  0
  3  1  2  0
  3  2  1  0
  4 17  4  0
  5 14  4  0
  5  2  2  0
  6 11  4  0
  7 18  4  0
  8 10  2  0
  8  5  4  0
  9  4  1  0
 10  3  1  0
 12 19  2  0
 13  7  4  0
 13  8  4  0
 14 16  1  0
 15 19  1  0
 16  4  4  0
 16  6  4  0
 17 11  4  0
 18 14  4  0
M  END
$$$$

     RDKit          3D

 19 22  0  0  0  0  0  0  0  0999 V2000
   -1.0390   -1.4740  -17.0750 C   0  0  0  0  0  0  0  0  0  0  0  0
   -3.5490   -1.8270  -16.8770 C   0  0  0  0  0  0  0  0  0  0  0  0
   -2.3960   -1.2930  -17.6060 C   0  0  0  0  0  0  0  0  0  0  0  0
   -8.3050   -2.9040  -16.5270 C   0  0  0  0  0  0  0  0  0  0  0  0
   -4.7660   -1.6490  -17.7490 C   0  0  0  0  0  0  0  0  0  0  0  0
   -6.2460   -3.2840  -15.5320 N   0  0  0  0  0  0  0  0  0  0  0  0
   -6.4500   -0.7540  -20.0020 C   0  0  0  0  0  0  0  0  0  0  0  0
   -4.1960   -0.9670  -18.9950 C   0  0  0  0  0  0  0  0  0  0  0  0
   -9.4310   -2.5760  -17.3800 C   0  0  0  0  0  0  0  0  0  0  0  0
   -2.8540   -0.8700  -18.8920 N   0  0  0  0  0  0  0  0  0  0  0  0
   -7.2610   -3.9590  -14.8290 N   0  0  0  0  0  0  0  0  0  0  0  0
   -3.4020   -2.4030  -15.5470 C   0  0  0  0  0  0  0  0  0  0  0  0
   -5.0110   -0.5160  -20.0570 C   0  0  0  0  0  0  0  0  0  0  0  0
   -6.2040   -1.9370  -17.7360 C   0  0  0  0  0  0  0  0  0  0  0  0
   -0.8550   -1.9780  -15.7180 C   0  0  0  0  0  0  0  0  0  0  0  0
   -6.9020   -2.6800  -16.6610 C   0  0  0  0  0  0  0  0  0  0  0  0
   -8.5550   -3.6940  -15.3960 N   0  0  0  0  0  0  0  0  0  0  0  0
   -6.9790   -1.4080  -18.8670 C   0  0  0  0  0  0  0  0  0  0  0  0
   -2.0400   -2.3970  -14.9530 C   0  0  0  0  0  0  0  0  0  0  0  0
  1 15  1  0
  2 12  1  0
  3  1  2  0
  3  2  1  0
  4 17  4  0
  5 14  4  0
  5  2  2  0
  6 11  4  0
  7 18  4  0
  8 10  2  0
  8  5  4  0
  9  4  1  0
 10  3  1  0
 12 19  2  0
 13  7  4  0
 13  8  4  0
 14 16  1  0
 15 19  1  0
 16  4  4  0
 16  6  4  0
 17 11  4  0
 18 14  4  0
M  END
$$$$

     RDKit          3D

 19 22  0  0  0  0  0  0  0  0999 V2000
   -1.1950   -1.1650  -16.9120 C   0  0  0  0  0  0  0  0  0  0  0  0
   -3.5670   -1.8110  -16.8860 C   0  0  0  0  0  0  0  0  0  0  0  0
   -2.4820   -1.1900  -17.5000 C   0  0  0  0  0  0  0  0  0  0  0  0
   -8.0960   -2.9670  -16.4570 C   0  0  0  0  0  0  0  0  0  0  0  0
   -4.7350   -1.6080  -17.7560 C   0  0  0  0  0  0  0  0  0  0  0  0
   -6.1450   -3.0660  -15.5040 N   0  0  0  0  0  0  0  0  0  0  0  0
   -6.5390   -1.0030  -19.9190 C   0  0  0  0  0  0  0  0  0  0  0  0
   -4.3970   -0.9430  -18.9050 C   0  0  0  0  0  0  0  0  0  0  0  0
   -9.2320   -2.7210  -17.3300 C   0  0  0  0  0  0  0  0  0  0  0  0
   -2.8090   -0.4610  -18.9510 S   0  0  0  0  0  0  0  0  0  0  0  0
   -6.8610   -3.7520  -14.7570 N   0  0  0  0  0  0  0  0  0  0  0  0
   -3.3790   -2.2920  -15.6350 C   0  0  0  0  0  0  0  0  0  0  0  0
   -5.2410   -0.6360  -19.9260 N   0  0  0  0  0  0  0  0  0  0  0  0
   -6.0780   -1.9590  -17.6940 C   0  0  0  0  0  0  0  0  0  0  0  0
   -1.0910   -1.7580  -15.6900 C   0  0  0  0  0  0  0  0  0  0  0  0
   -6.7880   -2.6070  -16.6100 C   0  0  0  0  0  0  0  0  0  0  0  0
   -8.1560   -3.6570  -15.2620 N   0  0  0  0  0  0  0  0  0  0  0  0
   -6.9900   -1.5720  -18.7090 C   0  0  0  0  0  0  0  0  0  0  0  0
   -2.1320   -2.3420  -15.0560 C   0  0  0  0  0  0  0  0  0  0  0  0
  1 15  4  0
  2 12  4  0
  3  1  4  0
  3  2  4  0
  4 17  4  0
  5 14  4  0
  5  2  4  0
  6 11  4  0
  7 18  4  0
  8  5  4  0
  9  4  1  0
 10  8  4  0
 10  3  4  0
 12 19  4  0
 13  7  4  0
 13  8  4  0
 14 16  1  0
 15 19  4  0
 16  4  4  0
 16  6  4  0
 17 11  4  0
 18 14  4  0
M  END
$$$$

     RDKit          3D

 19 22  0  0  0  0  0  0  0  0999 V2000
   -1.4230   -1.3160  -17.2920 C   0  0  0  0  0  0  0  0  0  0  0  0
   -3.7260   -1.8390  -17.1440 C   0  0  0  0  0  0  0  0  0  0  0  0
   -2.6370   -1.3340  -17.8080 C   0  0  0  0  0  0  0  0  0  0  0  0
   -8.1180   -2.8880  -16.4970 C   0  0  0  0  0  0  0  0  0  0  0  0
   -4.8520   -1.6800  -17.9870 C   0  0  0  0  0  0  0  0  0  0  0  0
   -6.0570   -2.8920  -15.6140 N   0  0  0  0  0  0  0  0  0  0  0  0
   -6.6450   -0.8420  -20.0590 C   0  0  0  0  0  0  0  0  0  0  0  0
   -4.4460   -1.0420  -19.1350 C   0  0  0  0  0  0  0  0  0  0  0  0
   -9.0970   -2.6670  -17.1590 O   0  0  0  0  0  0  0  0  0  0  0  0
   -3.0940   -0.9780  -18.9650 N   0  0  0  0  0  0  0  0  0  0  0  0
   -6.8470   -3.5720  -14.7350 C   0  0  0  0  0  0  0  0  0  0  0  0
   -3.5040   -2.3090  -15.7940 C   0  0  0  0  0  0  0  0  0  0  0  0
   -5.2100   -0.6660  -20.1170 C   0  0  0  0  0  0  0  0  0  0  0  0
   -6.2460   -1.8430  -17.9120 C   0  0  0  0  0  0  0  0  0  0  0  0
   -1.2220   -1.6930  -16.0030 C   0  0  0  0  0  0  0  0  0  0  0  0
   -6.7770   -2.5320  -16.7230 C   0  0  0  0  0  0  0  0  0  0  0  0
   -8.1150   -3.5350  -15.3230 N   0  0  0  0  0  0  0  0  0  0  0  0
   -7.0760   -1.4480  -18.8680 C   0  0  0  0  0  0  0  0  0  0  0  0
   -2.2040   -2.2000  -15.2280 C   0  0  0  0  0  0  0  0  0  0  0  0
  1 15  1  0
  2 12  1  0
  3  1  2  0
  3  2  1  0
  4 17  1  0
  5 14  4  0
  5  2  2  0
  6 11  2  0
  7 18  4  0
  8 10  2  0
  8  5  4  0
  9  4  2  0
 10  3  1  0
 12 19  2  0
 13  7  4  0
 13  8  4  0
 15 19  1  0
 16 14  1  0
 16  4  1  0
 16  6  1  0
 17 11  1  0
 18 14  4  0
M  END
$$$$

     RDKit          3D

 19 22  0  0  0  0  0  0  0  0999 V2000
   -1.3770   -1.1080  -16.8920 C   0  0  0  0  0  0  0  0  0  0  0  0
   -3.6720   -1.9290  -16.9690 C   0  0  0  0  0  0  0  0  0  0  0  0
   -2.5460   -1.2520  -17.5960 C   0  0  0  0  0  0  0  0  0  0  0  0
   -8.2890   -2.9210  -16.6050 C   0  0  0  0  0  0  0  0  0  0  0  0
   -4.8370   -1.7400  -17.7990 C   0  0  0  0  0  0  0  0  0  0  0  0
   -6.2910   -3.0970  -15.4970 N   0  0  0  0  0  0  0  0  0  0  0  0
   -6.3620   -0.8890  -19.8920 C   0  0  0  0  0  0  0  0  0  0  0  0
   -4.2310   -1.1580  -18.9510 C   0  0  0  0  0  0  0  0  0  0  0  0
   -9.3200   -2.6370  -17.5590 C   0  0  0  0  0  0  0  0  0  0  0  0
   -2.9140   -0.8660  -18.7940 N   0  0  0  0  0  0  0  0  0  0  0  0
   -7.4060   -3.5810  -14.7420 N   0  0  0  0  0  0  0  0  0  0  0  0
   -3.4950   -2.5310  -15.7480 C   0  0  0  0  0  0  0  0  0  0  0  0
   -5.0450   -0.6880  -19.8650 N   0  0  0  0  0  0  0  0  0  0  0  0
   -6.2140   -2.0200  -17.7980 C   0  0  0  0  0  0  0  0  0  0  0  0
   -1.2670   -1.7060  -15.6700 C   0  0  0  0  0  0  0  0  0  0  0  0
   -6.9110   -2.6470  -16.6780 C   0  0  0  0  0  0  0  0  0  0  0  0
   -8.5750   -3.4920  -15.4400 N   0  0  0  0  0  0  0  0  0  0  0  0
   -6.9460   -1.5420  -18.8520 N   0  0  0  0  0  0  0  0  0  0  0  0
   -2.3010   -2.4530  -15.1090 C   0  0  0  0  0  0  0  0  0  0  0  0
  1 15  4  0
  2 12  4  0
  3  2  4  0
  3  1  4  0
  4 17  4  0
  5  8  1  0
  5 14  1  0
  5  2  1  0
  6 11  4  0
  7 13  2  0
  7 18  1  0
  8 10  2  0
  9  4  1  0
 10  3  1  0
 12 19  4  0
 13  8  1  0
 14 16  1  0
 15 19  4  0
 16  4  4  0
 16  6  4  0
 17 11  4  0
 18 14  2  0
M  END
$$$$

     RDKit          3D

 19 22  0  0  0  0  0  0  0  0999 V2000
   -1.2750   -1.5600  -17.2950 C   0  0  0  0  0  0  0  0  0  0  0  0
   -3.7520   -1.9580  -16.9090 C   0  0  0  0  0  0  0  0  0  0  0  0
   -2.6540   -1.3800  -17.7020 C   0  0  0  0  0  0  0  0  0  0  0  0
   -8.4550   -3.3530  -16.5550 C   0  0  0  0  0  0  0  0  0  0  0  0
   -5.0090   -1.7260  -17.7930 C   0  0  0  0  0  0  0  0  0  0  0  0
   -6.5760   -3.2090  -15.4440 N   0  0  0  0  0  0  0  0  0  0  0  0
   -6.8100   -0.8470  -19.7090 C   0  0  0  0  0  0  0  0  0  0  0  0
   -4.5570   -0.9490  -18.9210 C   0  0  0  0  0  0  0  0  0  0  0  0
   -9.6580   -3.1190  -17.5110 C   0  0  0  0  0  0  0  0  0  0  0  0
   -3.0740   -0.7300  -18.8670 N   0  0  0  0  0  0  0  0  0  0  0  0
   -7.4360   -4.0070  -14.7590 N   0  0  0  0  0  0  0  0  0  0  0  0
   -3.5550   -2.5560  -15.6310 C   0  0  0  0  0  0  0  0  0  0  0  0
   -5.4900   -0.5170  -19.8980 N   0  0  0  0  0  0  0  0  0  0  0  0
   -6.4320   -1.9700  -17.6950 C   0  0  0  0  0  0  0  0  0  0  0  0
   -1.0710   -2.0480  -15.9460 C   0  0  0  0  0  0  0  0  0  0  0  0
   -7.1010   -2.7860  -16.5580 C   0  0  0  0  0  0  0  0  0  0  0  0
   -8.5560   -4.1360  -15.4900 N   0  0  0  0  0  0  0  0  0  0  0  0
   -7.2380   -1.5220  -18.6270 N   0  0  0  0  0  0  0  0  0  0  0  0
   -2.2490   -2.5010  -15.1820 C   0  0  0  0  0  0  0  0  0  0  0  0
  1 15  4  0
  2 12  4  0
  3  1  4  0
  3  2  4  0
  4 17  4  0
  5  8  1  0
  5 14  1  0
  5  2  1  0
  6 11  4  0
  7 18  1  0
  8 10  2  0
  9  4  1  0
 10  3  1  0
 12 19  4  0
 13  7  2  0
 13  8  1  0
 14 16  1  0
 15 19  4  0
 16  4  4  0
 16  6  4  0
 17 11  4  0
 18 14  2  0
M  END
$$$$

     RDKit          3D

 19 22  0  0  0  0  0  0  0  0999 V2000
   -1.2330   -0.9160  -17.0130 C   0  0  0  0  0  0  0  0  0  0  0  0
   -3.4920   -1.8560  -17.0420 C   0  0  0  0  0  0  0  0  0  0  0  0
   -2.5050   -1.1200  -17.6370 C   0  0  0  0  0  0  0  0  0  0  0  0
   -8.2060   -2.8750  -16.5430 C   0  0  0  0  0  0  0  0  0  0  0  0
   -4.8170   -1.6410  -17.8600 C   0  0  0  0  0  0  0  0  0  0  0  0
   -6.0610   -3.0810  -15.6860 N   0  0  0  0  0  0  0  0  0  0  0  0
   -6.4090   -0.9530  -19.9280 C   0  0  0  0  0  0  0  0  0  0  0  0
   -4.3210   -1.0120  -18.9570 C   0  0  0  0  0  0  0  0  0  0  0  0
   -9.3740   -2.7040  -17.4650 C   0  0  0  0  0  0  0  0  0  0  0  0
   -3.0440   -0.6540  -18.8110 N   0  0  0  0  0  0  0  0  0  0  0  0
   -6.9670   -3.7010  -14.8700 C   0  0  0  0  0  0  0  0  0  0  0  0
   -3.1760   -2.5210  -15.9030 C   0  0  0  0  0  0  0  0  0  0  0  0
   -5.1100   -0.6810  -19.9650 N   0  0  0  0  0  0  0  0  0  0  0  0
   -6.1920   -1.9210  -17.8310 C   0  0  0  0  0  0  0  0  0  0  0  0
   -0.9070   -1.6240  -15.9220 C   0  0  0  0  0  0  0  0  0  0  0  0
   -6.8350   -2.6030  -16.7390 N   0  0  0  0  0  0  0  0  0  0  0  0
   -8.2890   -3.5060  -15.3200 N   0  0  0  0  0  0  0  0  0  0  0  0
   -6.9630   -1.4730  -18.8350 C   0  0  0  0  0  0  0  0  0  0  0  0
   -1.8530   -2.4740  -15.3590 C   0  0  0  0  0  0  0  0  0  0  0  0
  1 15  4  0
  2 12  4  0
  3  2  4  0
  3  1  4  0
  4 17  4  0
  5  8  1  0
  5 14  1  0
  5  2  1  0
  6 11  4  0
  7 18  1  0
  8 10  2  0
  9  4  1  0
 10  3  1  0
 12 19  4  0
 13  7  2  0
 13  8  1  0
 14 16  1  0
 15 19  4  0
 16  4  4  0
 16  6  4  0
 17 11  4  0
 18 14  2  0
M  END
$$$$

     RDKit          3D

 19 22  0  0  0  0  0  0  0  0999 V2000
   -1.3120   -1.0460  -16.7560 C   0  0  0  0  0  0  0  0  0  0  0  0
   -3.6890   -1.8330  -16.9410 C   0  0  0  0  0  0  0  0  0  0  0  0
   -2.5400   -1.1710  -17.3620 C   0  0  0  0  0  0  0  0  0  0  0  0
   -8.1450   -2.8540  -16.5610 C   0  0  0  0  0  0  0  0  0  0  0  0
   -4.7420   -1.5690  -17.8120 C   0  0  0  0  0  0  0  0  0  0  0  0
   -6.1490   -3.1590  -15.6980 N   0  0  0  0  0  0  0  0  0  0  0  0
   -6.2930   -0.8670  -20.0160 C   0  0  0  0  0  0  0  0  0  0  0  0
   -4.1960   -0.8610  -18.8870 C   0  0  0  0  0  0  0  0  0  0  0  0
   -9.3270   -2.6280  -17.3860 C   0  0  0  0  0  0  0  0  0  0  0  0
   -2.9930   -0.5570  -18.6330 N   0  0  0  0  0  0  0  0  0  0  0  0
   -6.9490   -3.7430  -14.8400 N   0  0  0  0  0  0  0  0  0  0  0  0
   -3.4690   -2.6160  -15.7900 C   0  0  0  0  0  0  0  0  0  0  0  0
   -4.9720   -0.4910  -19.9290 N   0  0  0  0  0  0  0  0  0  0  0  0
   -6.1370   -1.8210  -17.8060 C   0  0  0  0  0  0  0  0  0  0  0  0
   -1.2390   -1.7960  -15.6010 C   0  0  0  0  0  0  0  0  0  0  0  0
   -6.7330   -2.5310  -16.7510 C   0  0  0  0  0  0  0  0  0  0  0  0
   -8.2110   -3.5660  -15.4080 N   0  0  0  0  0  0  0  0  0  0  0  0
   -6.8920   -1.5320  -18.9340 C   0  0  0  0  0  0  0  0  0  0  0  0
   -2.2120   -2.5900  -15.1670 C   0  0  0  0  0  0  0  0  0  0  0  0
  1 15  4  0
  2 12  4  0
  3  2  4  0
  3  1  4  0
  4 17  4  0
  5  8  1  0
  5 14  1  0
  5  2  1  0
  6 11  4  0
  7 13  2  0
  7 18  1  0
  8 10  2  0
  9  4  1  0
 10  3  1  0
 12 19  4  0
 13  8  1  0
 14 16  1  0
 15 19  4  0
 16  4  4  0
 16  6  4  0
 17 11  4  0
 18 14  2  0
M  END
$$$$

     RDKit          3D

 19 22  0  0  0  0  0  0  0  0999 V2000
   -1.2060   -0.8880  -16.8750 C   0  0  0  0  0  0  0  0  0  0  0  0
   -3.4930   -1.8380  -16.8660 C   0  0  0  0  0  0  0  0  0  0  0  0
   -2.4730   -1.1380  -17.4870 C   0  0  0  0  0  0  0  0  0  0  0  0
   -8.0460   -2.9660  -16.4370 C   0  0  0  0  0  0  0  0  0  0  0  0
   -4.6480   -1.6730  -17.7400 C   0  0  0  0  0  0  0  0  0  0  0  0
   -6.1510   -3.1930  -15.5810 C   0  0  0  0  0  0  0  0  0  0  0  0
   -6.2450   -0.9330  -19.9200 N   0  0  0  0  0  0  0  0  0  0  0  0
   -4.2040   -0.9770  -18.8690 C   0  0  0  0  0  0  0  0  0  0  0  0
   -9.2030   -2.5440  -17.2350 C   0  0  0  0  0  0  0  0  0  0  0  0
   -2.9450   -0.6850  -18.6090 N   0  0  0  0  0  0  0  0  0  0  0  0
   -7.0070   -3.9670  -14.8810 N   0  0  0  0  0  0  0  0  0  0  0  0
   -3.2240   -2.4770  -15.6600 C   0  0  0  0  0  0  0  0  0  0  0  0
   -4.9140   -0.6640  -19.9160 C   0  0  0  0  0  0  0  0  0  0  0  0
   -6.0760   -1.9800  -17.7310 C   0  0  0  0  0  0  0  0  0  0  0  0
   -0.9430   -1.5650  -15.6940 C   0  0  0  0  0  0  0  0  0  0  0  0
   -6.7890   -2.6610  -16.6050 C   0  0  0  0  0  0  0  0  0  0  0  0
   -8.1860   -3.7240  -15.3820 N   0  0  0  0  0  0  0  0  0  0  0  0
   -6.7830   -1.5970  -18.8460 C   0  0  0  0  0  0  0  0  0  0  0  0
   -2.0000   -2.2860  -15.1150 C   0  0  0  0  0  0  0  0  0  0  0  0
  1 15  1  0
  2 12  1  0
  3  1  2  0
  3  2  1  0
  4 17  4  0
  5 14  4  0
  5  2  2  0
  6 11  4  0
  7 13  4  0
  7 18  4  0
  8 10  2  0
  8  5  4  0
  9  4  1  0
 10  3  1  0
 12 19  2  0
 13  8  4  0
 14 16  1  0
 15 19  1  0
 16  4  4  0
 16  6  4  0
 17 11  4  0
 18 14  4  0
M  END
$$$$

     RDKit          3D

 19 22  0  0  0  0  0  0  0  0999 V2000
   -1.2230   -1.3940  -16.9040 C   0  0  0  0  0  0  0  0  0  0  0  0
   -3.5330   -2.0550  -16.8390 C   0  0  0  0  0  0  0  0  0  0  0  0
   -2.4790   -1.4550  -17.4910 C   0  0  0  0  0  0  0  0  0  0  0  0
   -8.3650   -2.9090  -16.6250 C   0  0  0  0  0  0  0  0  0  0  0  0
   -4.7720   -1.7820  -17.6760 C   0  0  0  0  0  0  0  0  0  0  0  0
   -6.4680   -3.2810  -15.5240 C   0  0  0  0  0  0  0  0  0  0  0  0
   -6.5230   -0.9810  -19.7590 C   0  0  0  0  0  0  0  0  0  0  0  0
   -4.2750   -1.2020  -18.8360 N   0  0  0  0  0  0  0  0  0  0  0  0
   -9.3310   -2.4540  -17.4160 N   0  0  0  0  0  0  0  0  0  0  0  0
   -2.9000   -1.0200  -18.7550 N   0  0  0  0  0  0  0  0  0  0  0  0
   -7.4360   -3.9210  -14.9250 N   0  0  0  0  0  0  0  0  0  0  0  0
   -3.3390   -2.5190  -15.5460 C   0  0  0  0  0  0  0  0  0  0  0  0
   -5.1320   -0.8180  -19.8720 C   0  0  0  0  0  0  0  0  0  0  0  0
   -6.1540   -1.9870  -17.6580 C   0  0  0  0  0  0  0  0  0  0  0  0
   -1.0260   -1.9110  -15.6700 C   0  0  0  0  0  0  0  0  0  0  0  0
   -6.8780   -2.7150  -16.6450 C   0  0  0  0  0  0  0  0  0  0  0  0
   -8.5480   -3.6620  -15.6170 N   0  0  0  0  0  0  0  0  0  0  0  0
   -6.9890   -1.5540  -18.6710 N   0  0  0  0  0  0  0  0  0  0  0  0
   -2.1070   -2.4880  -15.0120 C   0  0  0  0  0  0  0  0  0  0  0  0
  1 15  4  0
  2 12  4  0
  3  1  4  0
  3  2  4  0
  4 17  4  0
  5 14  4  0
  5  2  4  0
  6 11  4  0
  7 18  4  0
  8 10  4  0
  8  5  4  0
  9  4  1  0
 10  3  4  0
 12 19  4  0
 13  7  4  0
 13  8  4  0
 14 16  1  0
 15 19  4  0
 16  4  4  0
 16  6  4  0
 17 11  4  0
 18 14  4  0
M  END
$$$$

     RDKit          3D

 19 22  0  0  0  0  0  0  0  0999 V2000
   -1.2590   -1.0530  -16.8700 C   0  0  0  0  0  0  0  0  0  0  0  0
   -3.4910   -1.9230  -16.8530 C   0  0  0  0  0  0  0  0  0  0  0  0
   -2.4060   -1.3250  -17.5000 C   0  0  0  0  0  0  0  0  0  0  0  0
   -8.1020   -2.7880  -16.4330 C   0  0  0  0  0  0  0  0  0  0  0  0
   -4.6550   -1.6970  -17.7200 C   0  0  0  0  0  0  0  0  0  0  0  0
   -6.1350   -3.0690  -15.5990 N   0  0  0  0  0  0  0  0  0  0  0  0
   -6.3090   -0.7340  -19.8020 C   0  0  0  0  0  0  0  0  0  0  0  0
   -4.1850   -0.9200  -18.8490 C   0  0  0  0  0  0  0  0  0  0  0  0
   -9.2350   -2.5260  -17.3410 C   0  0  0  0  0  0  0  0  0  0  0  0
   -2.8710   -0.7670  -18.6950 N   0  0  0  0  0  0  0  0  0  0  0  0
   -7.0090   -3.6480  -14.7830 N   0  0  0  0  0  0  0  0  0  0  0  0
   -3.2540   -2.7000  -15.6930 C   0  0  0  0  0  0  0  0  0  0  0  0
   -4.9790   -0.5130  -19.8650 C   0  0  0  0  0  0  0  0  0  0  0  0
   -6.0940   -1.8450  -17.7160 C   0  0  0  0  0  0  0  0  0  0  0  0
   -0.9700   -1.6810  -15.7150 C   0  0  0  0  0  0  0  0  0  0  0  0
   -6.7670   -2.5020  -16.6090 C   0  0  0  0  0  0  0  0  0  0  0  0
   -8.2080   -3.4700  -15.2980 N   0  0  0  0  0  0  0  0  0  0  0  0
   -6.8770   -1.3900  -18.7840 C   0  0  0  0  0  0  0  0  0  0  0  0
   -1.9750   -2.5530  -15.1470 C   0  0  0  0  0  0  0  0  0  0  0  0
  1 15  1  0
  2 12  1  0
  3  1  2  0
  3  2  1  0
  4 17  4  0
  5 14  4  0
  5  2  2  0
  6 11  4  0
  7 18  4  0
  8 10  2  0
  8  5  4  0
  9  4  1  0
 10  3  1  0
 12 19  2  0
 13  7  4  0
 13  8  4  0
 14 16  1  0
 15 19  1  0
 16  4  4  0
 16  6  4  0
 17 11  4  0
 18 14  4  0
M  END
$$$$

     RDKit          3D

 19 22  0  0  0  0  0  0  0  0999 V2000
   -1.3530   -1.0730  -16.8340 C   0  0  0  0  0  0  0  0  0  0  0  0
   -3.6360   -1.7950  -16.9940 C   0  0  0  0  0  0  0  0  0  0  0  0
   -2.5560   -1.1770  -17.5020 C   0  0  0  0  0  0  0  0  0  0  0  0
   -8.0450   -2.8680  -16.4670 C   0  0  0  0  0  0  0  0  0  0  0  0
   -4.8250   -1.6160  -17.8990 C   0  0  0  0  0  0  0  0  0  0  0  0
   -5.9970   -3.0220  -15.6200 N   0  0  0  0  0  0  0  0  0  0  0  0
   -6.3930   -0.9240  -20.0280 C   0  0  0  0  0  0  0  0  0  0  0  0
   -4.2820   -0.9660  -18.9510 C   0  0  0  0  0  0  0  0  0  0  0  0
   -9.2470   -2.6280  -17.2710 C   0  0  0  0  0  0  0  0  0  0  0  0
   -2.8720   -0.6770  -18.7050 N   0  0  0  0  0  0  0  0  0  0  0  0
   -6.8700   -3.6540  -14.7850 N   0  0  0  0  0  0  0  0  0  0  0  0
   -3.5170   -2.5000  -15.8040 C   0  0  0  0  0  0  0  0  0  0  0  0
   -4.9840   -0.5780  -20.0940 C   0  0  0  0  0  0  0  0  0  0  0  0
   -6.1750   -1.8820  -17.8380 C   0  0  0  0  0  0  0  0  0  0  0  0
   -1.2680   -1.7940  -15.5980 C   0  0  0  0  0  0  0  0  0  0  0  0
   -6.6500   -2.6090  -16.7540 C   0  0  0  0  0  0  0  0  0  0  0  0
   -8.0920   -3.5300  -15.2750 N   0  0  0  0  0  0  0  0  0  0  0  0
   -6.9280   -1.5150  -18.8860 C   0  0  0  0  0  0  0  0  0  0  0  0
   -2.3170   -2.4890  -15.0240 C   0  0  0  0  0  0  0  0  0  0  0  0
  1 15  1  0
  2 12  1  0
  3  2  1  0
  3  1  2  0
  4 17  4  0
  5 14  4  0
  5  2  2  0
  6 11  4  0
  7 18  4  0
  8 10  2  0
  8  5  4  0
  9  4  1  0
 10  3  1  0
 12 19  2  0
 13  7  4  0
 13  8  4  0
 14 16  1  0
 15 19  1  0
 16  4  4  0
 16  6  4  0
 17 11  4  0
 18 14  4  0
M  END
$$$$

     RDKit          3D

 19 22  0  0  0  0  0  0  0  0999 V2000
   -1.1520   -1.3570  -16.9200 N   0  0  0  0  0  0  0  0  0  0  0  0
   -3.5740   -1.9260  -16.7950 C   0  0  0  0  0  0  0  0  0  0  0  0
   -2.3940   -1.3780  -17.4420 C   0  0  0  0  0  0  0  0  0  0  0  0
   -8.2340   -3.1580  -16.4800 C   0  0  0  0  0  0  0  0  0  0  0  0
   -4.7490   -1.7670  -17.6970 C   0  0  0  0  0  0  0  0  0  0  0  0
   -6.2820   -3.1040  -15.2580 C   0  0  0  0  0  0  0  0  0  0  0  0
   -6.5660   -1.1280  -19.8180 C   0  0  0  0  0  0  0  0  0  0  0  0
   -4.2940   -1.0460  -18.9200 C   0  0  0  0  0  0  0  0  0  0  0  0
   -9.1570   -2.9110  -17.3930 O   0  0  0  0  0  0  0  0  0  0  0  0
   -2.8610   -0.8160  -18.6390 N   0  0  0  0  0  0  0  0  0  0  0  0
   -7.2340   -3.8790  -14.6220 C   0  0  0  0  0  0  0  0  0  0  0  0
   -3.3170   -2.5470  -15.5090 C   0  0  0  0  0  0  0  0  0  0  0  0
   -5.1760   -0.7010  -19.9590 C   0  0  0  0  0  0  0  0  0  0  0  0
   -6.1790   -2.0590  -17.6020 C   0  0  0  0  0  0  0  0  0  0  0  0
   -0.9700   -1.8710  -15.5500 C   0  0  0  0  0  0  0  0  0  0  0  0
   -6.8350   -2.6860  -16.5360 C   0  0  0  0  0  0  0  0  0  0  0  0
   -8.4250   -3.8430  -15.3450 N   0  0  0  0  0  0  0  0  0  0  0  0
   -7.0080   -1.6540  -18.6890 N   0  0  0  0  0  0  0  0  0  0  0  0
   -2.0600   -2.5510  -14.9120 C   0  0  0  0  0  0  0  0  0  0  0  0
  1 15  1  0
  2 12  1  0
  3  1  2  0
  3  2  1  0
  4 17  1  0
  5 14  4  0
  5  2  1  0
  6 11  2  0
  7 18  4  0
  8 10  1  0
  8  5  4  0
  9  4  2  0
 10  3  1  0
 12 19  2  0
 13  7  4  0
 13  8  4  0
 15 19  1  0
 16 14  1  0
 16  4  1  0
 16  6  1  0
 17 11  1  0
 18 14  4  0
M  END
$$$$

     RDKit          3D

 19 22  0  0  0  0  0  0  0  0999 V2000
   -1.4740   -1.3140  -17.2020 C   0  0  0  0  0  0  0  0  0  0  0  0
   -3.8060   -2.0270  -17.0020 C   0  0  0  0  0  0  0  0  0  0  0  0
   -2.6720   -1.6460  -17.7370 N   0  0  0  0  0  0  0  0  0  0  0  0
   -8.5660   -3.0960  -16.4280 N   0  0  0  0  0  0  0  0  0  0  0  0
   -5.0160   -1.8360  -17.7480 C   0  0  0  0  0  0  0  0  0  0  0  0
   -6.6770   -3.3110  -15.3330 C   0  0  0  0  0  0  0  0  0  0  0  0
   -6.7510   -0.9990  -19.6950 C   0  0  0  0  0  0  0  0  0  0  0  0
   -4.6140   -1.1680  -18.9340 C   0  0  0  0  0  0  0  0  0  0  0  0
   -9.6400   -2.9080  -17.4260 C   0  0  0  0  0  0  0  0  0  0  0  0
   -3.1680   -1.0920  -18.8920 N   0  0  0  0  0  0  0  0  0  0  0  0
   -7.7260   -3.8090  -14.4470 N   0  0  0  0  0  0  0  0  0  0  0  0
   -3.4600   -2.6880  -15.8930 C   0  0  0  0  0  0  0  0  0  0  0  0
   -5.4470   -0.7600  -19.9090 N   0  0  0  0  0  0  0  0  0  0  0  0
   -6.4410   -2.1040  -17.6320 C   0  0  0  0  0  0  0  0  0  0  0  0
   -1.2210   -1.8380  -15.8790 C   0  0  0  0  0  0  0  0  0  0  0  0
   -7.1530   -2.8440  -16.5110 C   0  0  0  0  0  0  0  0  0  0  0  0
   -8.8800   -3.6520  -15.3190 C   0  0  0  0  0  0  0  0  0  0  0  0
   -7.2130   -1.5630  -18.6480 N   0  0  0  0  0  0  0  0  0  0  0  0
   -2.2120   -2.5400  -15.2860 C   0  0  0  0  0  0  0  0  0  0  0  0
  1 15  1  0
  2 12  2  0
  3  1  1  0
  3  2  4  0
  4 17  4  0
  5 14  2  0
  5  2  4  0
  6 11  4  0
  7 18  2  0
  8 10  4  0
  8  5  4  0
  9  4  1  0
 10  3  4  0
 12 19  1  0
 13  7  1  0
 13  8  1  0
 14 16  1  0
 15 19  2  0
 16  4  4  0
 16  6  4  0
 17 11  4  0
 18 14  1  0
M  END
$$$$

     RDKit          3D

 19 22  0  0  0  0  0  0  0  0999 V2000
   -1.4330   -0.6370  -16.7930 C   0  0  0  0  0  0  0  0  0  0  0  0
   -3.6650   -1.6970  -16.9340 C   0  0  0  0  0  0  0  0  0  0  0  0
   -2.6050   -0.9960  -17.4860 C   0  0  0  0  0  0  0  0  0  0  0  0
   -8.2320   -2.7350  -16.5100 C   0  0  0  0  0  0  0  0  0  0  0  0
   -4.8290   -1.4490  -17.8700 C   0  0  0  0  0  0  0  0  0  0  0  0
   -6.1050   -2.9990  -15.7070 N   0  0  0  0  0  0  0  0  0  0  0  0
   -6.4980   -0.8100  -19.9620 C   0  0  0  0  0  0  0  0  0  0  0  0
   -4.3370   -0.8750  -18.9770 C   0  0  0  0  0  0  0  0  0  0  0  0
   -9.3460   -2.4730  -17.2070 N   0  0  0  0  0  0  0  0  0  0  0  0
   -3.0420   -0.6350  -18.6760 N   0  0  0  0  0  0  0  0  0  0  0  0
   -7.0090   -3.6700  -14.9430 C   0  0  0  0  0  0  0  0  0  0  0  0
   -3.5280   -2.4250  -15.7610 C   0  0  0  0  0  0  0  0  0  0  0  0
   -5.0920   -0.5410  -20.0470 C   0  0  0  0  0  0  0  0  0  0  0  0
   -6.3030   -1.7910  -17.7660 C   0  0  0  0  0  0  0  0  0  0  0  0
   -1.2990   -1.5290  -15.5690 C   0  0  0  0  0  0  0  0  0  0  0  0
   -6.8970   -2.4760  -16.6750 C   0  0  0  0  0  0  0  0  0  0  0  0
   -8.3100   -3.5210  -15.3660 N   0  0  0  0  0  0  0  0  0  0  0  0
   -7.0080   -1.4330  -18.8450 C   0  0  0  0  0  0  0  0  0  0  0  0
   -2.2380   -2.2960  -15.1370 C   0  0  0  0  0  0  0  0  0  0  0  0
  1 15  1  0
  2 12  1  0
  3  2  1  0
  3  1  2  0
  4 17  4  0
  5 14  4  0
  5  2  2  0
  6 11  4  0
  7 18  4  0
  8 10  2  0
  8  5  4  0
  9  4  1  0
 10  3  1  0
 12 19  2  0
 13  7  4  0
 13  8  4  0
 14 16  1  0
 15 19  1  0
 16  4  4  0
 16  6  4  0
 17 11  4  0
 18 14  4  0
M  END
$$$$
