
     RDKit          3D

 19 22  0  0  0  0  0  0  0  0999 V2000
   -1.3400   -1.1210  -16.9400 C   0  0  0  0  0  0  0  0  0  0  0  0
   -3.6610   -1.8210  -16.8510 C   0  0  0  0  0  0  0  0  0  0  0  0
   -2.5940   -1.1630  -17.4350 C   0  0  0  0  0  0  0  0  0  0  0  0
   -8.1340   -3.2210  -16.3930 C   0  0  0  0  0  0  0  0  0  0  0  0
   -4.8470   -1.6660  -17.6730 C   0  0  0  0  0  0  0  0  0  0  0  0
   -6.1410   -3.0610  -15.3530 C   0  0  0  0  0  0  0  0  0  0  0  0
   -6.4840   -0.9950  -19.7820 C   0  0  0  0  0  0  0  0  0  0  0  0
   -4.3510   -1.0040  -18.7650 C   0  0  0  0  0  0  0  0  0  0  0  0
   -9.3340   -3.2070  -17.2520 C   0  0  0  0  0  0  0  0  0  0  0  0
   -3.0340   -0.7670  -18.5350 N   0  0  0  0  0  0  0  0  0  0  0  0
   -7.0160   -3.7230  -14.5740 O   0  0  0  0  0  0  0  0  0  0  0  0
   -3.3970   -2.3900  -15.6640 C   0  0  0  0  0  0  0  0  0  0  0  0
   -5.1260   -0.7110  -19.8700 C   0  0  0  0  0  0  0  0  0  0  0  0
   -6.2340   -2.0150  -17.6350 C   0  0  0  0  0  0  0  0  0  0  0  0
   -1.1070   -1.6460  -15.6730 C   0  0  0  0  0  0  0  0  0  0  0  0
   -6.8230   -2.6950  -16.5410 C   0  0  0  0  0  0  0  0  0  0  0  0
   -8.2160   -3.8050  -15.2350 N   0  0  0  0  0  0  0  0  0  0  0  0
   -7.0140   -1.6490  -18.6690 C   0  0  0  0  0  0  0  0  0  0  0  0
   -2.1660   -2.2800  -15.0730 C   0  0  0  0  0  0  0  0  0  0  0  0
  1 15  1  0
  2 12  1  0
  3  1  2  0
  3  2  1  0
  4 17  4  0
  5 14  4  0
  5  2  2  0
  6 11  4  0
  7 18  4  0
  8 10  2  0
  8  5  4  0
  9  4  1  0
 10  3  1  0
 12 19  2  0
 13  7  4  0
 13  8  4  0
 14 16  1  0
 15 19  1  0
 16  4  4  0
 16  6  4  0
 17 11  4  0
 18 14  4  0
M  END
$$$$

     RDKit          3D

 19 22  0  0  0  0  0  0  0  0999 V2000
   -1.2560   -1.1290  -17.0160 C   0  0  0  0  0  0  0  0  0  0  0  0
   -3.5630   -1.7890  -16.8740 C   0  0  0  0  0  0  0  0  0  0  0  0
   -2.4740   -1.2880  -17.5510 C   0  0  0  0  0  0  0  0  0  0  0  0
   -8.0630   -2.8730  -16.4750 C   0  0  0  0  0  0  0  0  0  0  0  0
   -4.6990   -1.7010  -17.7780 C   0  0  0  0  0  0  0  0  0  0  0  0
   -5.9630   -3.0300  -15.6860 N   0  0  0  0  0  0  0  0  0  0  0  0
   -6.3720   -0.9650  -20.0410 C   0  0  0  0  0  0  0  0  0  0  0  0
   -4.1530   -1.1010  -18.9730 C   0  0  0  0  0  0  0  0  0  0  0  0
   -9.4220   -2.6600  -17.1350 C   0  0  0  0  0  0  0  0  0  0  0  0
   -2.8700   -0.9010  -18.8340 N   0  0  0  0  0  0  0  0  0  0  0  0
   -6.8200   -3.6570  -14.8380 N   0  0  0  0  0  0  0  0  0  0  0  0
   -3.4160   -2.3200  -15.6080 C   0  0  0  0  0  0  0  0  0  0  0  0
   -4.9800   -0.7410  -20.1370 C   0  0  0  0  0  0  0  0  0  0  0  0
   -6.1180   -1.9310  -17.7630 C   0  0  0  0  0  0  0  0  0  0  0  0
   -1.0550   -1.6340  -15.7340 C   0  0  0  0  0  0  0  0  0  0  0  0
   -6.7090   -2.5630  -16.7270 C   0  0  0  0  0  0  0  0  0  0  0  0
   -8.1060   -3.5120  -15.2680 N   0  0  0  0  0  0  0  0  0  0  0  0
   -6.8810   -1.6120  -18.8760 C   0  0  0  0  0  0  0  0  0  0  0  0
   -2.1190   -2.1840  -15.0130 C   0  0  0  0  0  0  0  0  0  0  0  0
  1 15  1  0
  2 12  1  0
  3  1  2  0
  3  2  1  0
  4 17  4  0
  5 14  4  0
  5  2  2  0
  6 11  4  0
  7 18  4  0
  8 10  2  0
  8  5  4  0
  9  4  1  0
 10  3  1  0
 12 19  2  0
 13  7  4  0
 13  8  4  0
 14 16  1  0
 15 19  1  0
 16  4  4  0
 16  6  4  0
 17 11  4  0
 18 14  4  0
M  END
$$$$

     RDKit          3D

 19 22  0  0  0  0  0  0  0  0999 V2000
   -1.3290   -0.3970  -17.2530 C   0  0  0  0  0  0  0  0  0  0  0  0
   -3.5500   -1.5270  -17.1320 C   0  0  0  0  0  0  0  0  0  0  0  0
   -2.5450   -0.7860  -17.8400 C   0  0  0  0  0  0  0  0  0  0  0  0
   -8.2380   -2.8100  -16.5210 C   0  0  0  0  0  0  0  0  0  0  0  0
   -4.8130   -1.4140  -17.9980 C   0  0  0  0  0  0  0  0  0  0  0  0
   -6.0740   -2.9450  -15.6530 N   0  0  0  0  0  0  0  0  0  0  0  0
   -6.5830   -0.8570  -20.1350 C   0  0  0  0  0  0  0  0  0  0  0  0
   -4.3370   -0.8600  -19.1630 C   0  0  0  0  0  0  0  0  0  0  0  0
   -9.3200   -2.5850  -17.1430 O   0  0  0  0  0  0  0  0  0  0  0  0
   -3.0310   -0.5520  -19.0140 N   0  0  0  0  0  0  0  0  0  0  0  0
   -6.9480   -3.6040  -14.7960 N   0  0  0  0  0  0  0  0  0  0  0  0
   -3.1970   -2.1230  -15.9450 N   0  0  0  0  0  0  0  0  0  0  0  0
   -5.2610   -0.5230  -20.2660 C   0  0  0  0  0  0  0  0  0  0  0  0
   -6.2360   -1.7890  -17.8850 C   0  0  0  0  0  0  0  0  0  0  0  0
   -1.0060   -1.0860  -16.0060 C   0  0  0  0  0  0  0  0  0  0  0  0
   -6.8410   -2.4450  -16.7610 C   0  0  0  0  0  0  0  0  0  0  0  0
   -8.2250   -3.5450  -15.2970 N   0  0  0  0  0  0  0  0  0  0  0  0
   -7.1310   -1.3620  -18.9630 C   0  0  0  0  0  0  0  0  0  0  0  0
   -1.8690   -1.9290  -15.4450 C   0  0  0  0  0  0  0  0  0  0  0  0
  1 15  1  0
  2 12  1  0
  3  1  2  0
  3  2  1  0
  4 17  1  0
  5 14  4  0
  5  2  2  0
  6 11  1  0
  7 18  4  0
  8 10  2  0
  8  5  4  0
  9  4  2  0
 10  3  1  0
 12 19  2  0
 13  7  4  0
 13  8  4  0
 14 16  1  0
 15 19  1  0
 16  4  1  0
 16  6  2  0
 17 11  2  0
 18 14  4  0
M  END
$$$$

     RDKit          3D

 19 22  0  0  0  0  0  0  0  0999 V2000
   -1.2830   -0.7700  -16.9760 C   0  0  0  0  0  0  0  0  0  0  0  0
   -3.5240   -1.6970  -16.9580 C   0  0  0  0  0  0  0  0  0  0  0  0
   -2.4980   -0.9410  -17.5080 C   0  0  0  0  0  0  0  0  0  0  0  0
   -7.9670   -3.2180  -16.3400 C   0  0  0  0  0  0  0  0  0  0  0  0
   -4.6780   -1.5350  -17.7440 C   0  0  0  0  0  0  0  0  0  0  0  0
   -5.8590   -3.0650  -15.4870 N   0  0  0  0  0  0  0  0  0  0  0  0
   -6.5710   -0.8820  -19.7940 C   0  0  0  0  0  0  0  0  0  0  0  0
   -4.3250   -0.8470  -18.8770 C   0  0  0  0  0  0  0  0  0  0  0  0
   -9.3400   -3.1170  -17.2550 S   0  0  0  0  0  0  0  0  0  0  0  0
   -3.0410   -0.5360  -18.7300 N   0  0  0  0  0  0  0  0  0  0  0  0
   -6.6080   -3.9070  -14.8210 N   0  0  0  0  0  0  0  0  0  0  0  0
   -3.2180   -2.4420  -15.8300 C   0  0  0  0  0  0  0  0  0  0  0  0
   -5.1650   -0.5240  -19.9340 C   0  0  0  0  0  0  0  0  0  0  0  0
   -6.0830   -1.8940  -17.6650 C   0  0  0  0  0  0  0  0  0  0  0  0
   -0.9960   -1.5260  -15.8720 C   0  0  0  0  0  0  0  0  0  0  0  0
   -6.6340   -2.6030  -16.4740 C   0  0  0  0  0  0  0  0  0  0  0  0
   -7.9180   -3.9800  -15.2660 N   0  0  0  0  0  0  0  0  0  0  0  0
   -6.8830   -1.5090  -18.6470 N   0  0  0  0  0  0  0  0  0  0  0  0
   -1.8910   -2.3100  -15.2790 C   0  0  0  0  0  0  0  0  0  0  0  0
  1 15  1  0
  2 12  1  0
  3  1  2  0
  3  2  1  0
  4 17  1  0
  5 14  4  0
  5  2  2  0
  6 11  1  0
  7 18  4  0
  8 10  2  0
  8  5  4  0
  9  4  2  0
 10  3  1  0
 12 19  2  0
 13  7  4  0
 13  8  4  0
 14 16  1  0
 15 19  1  0
 16  4  1  0
 16  6  2  0
 17 11  2  0
 18 14  4  0
M  END
$$$$

     RDKit          3D

 19 22  0  0  0  0  0  0  0  0999 V2000
   -1.2050   -0.5780  -16.8380 C   0  0  0  0  0  0  0  0  0  0  0  0
   -3.4260   -1.8820  -16.9140 C   0  0  0  0  0  0  0  0  0  0  0  0
   -2.4140   -0.9050  -17.5420 C   0  0  0  0  0  0  0  0  0  0  0  0
   -8.1020   -3.1010  -16.2440 C   0  0  0  0  0  0  0  0  0  0  0  0
   -4.6560   -1.6950  -17.7780 C   0  0  0  0  0  0  0  0  0  0  0  0
   -5.9510   -3.4600  -15.3930 N   0  0  0  0  0  0  0  0  0  0  0  0
   -6.4970   -0.9020  -19.6810 C   0  0  0  0  0  0  0  0  0  0  0  0
   -4.3460   -0.8030  -18.8740 C   0  0  0  0  0  0  0  0  0  0  0  0
   -9.3890   -2.7900  -16.9930 C   0  0  0  0  0  0  0  0  0  0  0  0
   -3.0350   -0.3570  -18.6970 N   0  0  0  0  0  0  0  0  0  0  0  0
   -6.7640   -4.0420  -14.6010 N   0  0  0  0  0  0  0  0  0  0  0  0
   -2.8990   -2.7890  -15.8380 C   0  0  0  0  0  0  0  0  0  0  0  0
   -5.2910   -0.4710  -19.8330 N   0  0  0  0  0  0  0  0  0  0  0  0
   -6.1080   -2.0100  -17.7050 C   0  0  0  0  0  0  0  0  0  0  0  0
   -0.7840   -1.4730  -15.7550 C   0  0  0  0  0  0  0  0  0  0  0  0
   -6.6780   -2.8130  -16.4770 C   0  0  0  0  0  0  0  0  0  0  0  0
   -8.0520   -3.8780  -15.0760 C   0  0  0  0  0  0  0  0  0  0  0  0
   -6.9310   -1.7160  -18.6780 N   0  0  0  0  0  0  0  0  0  0  0  0
   -1.6350   -2.5020  -15.2790 C   0  0  0  0  0  0  0  0  0  0  0  0
  1 15  4  0
  2 12  4  0
  3  2  4  0
  3  1  4  0
  4 17  1  0
  5  8  1  0
  5 14  1  0
  5  2  1  0
  6 11  2  0
  7 18  1  0
  8 10  2  0
  9  4  1  0
 10  3  1  0
 12 19  4  0
 13  7  2  0
 13  8  1  0
 14 16  1  0
 15 19  4  0
 16  4  2  0
 16  6  1  0
 17 11  1  0
 18 14  2  0
M  END
$$$$

     RDKit          3D

 19 22  0  0  0  0  0  0  0  0999 V2000
   -1.2670   -1.0260  -16.8510 C   0  0  0  0  0  0  0  0  0  0  0  0
   -3.5140   -2.0080  -16.7780 C   0  0  0  0  0  0  0  0  0  0  0  0
   -2.5210   -1.1900  -17.3720 C   0  0  0  0  0  0  0  0  0  0  0  0
   -8.1230   -3.2790  -16.1800 C   0  0  0  0  0  0  0  0  0  0  0  0
   -4.7210   -1.7630  -17.5520 C   0  0  0  0  0  0  0  0  0  0  0  0
   -6.0850   -3.5450  -15.4400 N   0  0  0  0  0  0  0  0  0  0  0  0
   -6.5720   -1.0420  -19.4890 C   0  0  0  0  0  0  0  0  0  0  0  0
   -4.3770   -0.9470  -18.5940 C   0  0  0  0  0  0  0  0  0  0  0  0
   -9.2850   -3.0510  -16.8580 N   0  0  0  0  0  0  0  0  0  0  0  0
   -3.0590   -0.5380  -18.4570 N   0  0  0  0  0  0  0  0  0  0  0  0
   -6.8990   -4.1330  -14.5670 N   0  0  0  0  0  0  0  0  0  0  0  0
   -3.1320   -2.6970  -15.6540 C   0  0  0  0  0  0  0  0  0  0  0  0
   -5.2480   -0.6330  -19.6310 C   0  0  0  0  0  0  0  0  0  0  0  0
   -6.1070   -2.1880  -17.4600 C   0  0  0  0  0  0  0  0  0  0  0  0
   -0.9810   -1.6840  -15.6470 C   0  0  0  0  0  0  0  0  0  0  0  0
   -6.7310   -2.9700  -16.3630 C   0  0  0  0  0  0  0  0  0  0  0  0
   -8.1670   -4.0340  -15.0720 N   0  0  0  0  0  0  0  0  0  0  0  0
   -7.0230   -1.7580  -18.5140 C   0  0  0  0  0  0  0  0  0  0  0  0
   -1.9080   -2.5640  -15.0940 C   0  0  0  0  0  0  0  0  0  0  0  0
  1 15  1  0
  2 12  1  0
  3  1  2  0
  3  2  1  0
  4 17  4  0
  5 14  4  0
  5  2  2  0
  6 11  4  0
  7 18  4  0
  8 10  2  0
  8  5  4  0
  9  4  1  0
 10  3  1  0
 12 19  2  0
 13  7  4  0
 13  8  4  0
 14 16  1  0
 15 19  1  0
 16  4  4  0
 16  6  4  0
 17 11  4  0
 18 14  4  0
M  END
$$$$

     RDKit          3D

 19 22  0  0  0  0  0  0  0  0999 V2000
   -1.3980   -0.8010  -16.7700 C   0  0  0  0  0  0  0  0  0  0  0  0
   -3.7130   -1.7970  -16.8650 C   0  0  0  0  0  0  0  0  0  0  0  0
   -2.7060   -0.9940  -17.4770 C   0  0  0  0  0  0  0  0  0  0  0  0
   -8.1370   -3.2680  -16.2170 C   0  0  0  0  0  0  0  0  0  0  0  0
   -4.8850   -1.7110  -17.7420 C   0  0  0  0  0  0  0  0  0  0  0  0
   -6.1270   -3.3290  -15.4020 N   0  0  0  0  0  0  0  0  0  0  0  0
   -6.7050   -1.0160  -19.9010 C   0  0  0  0  0  0  0  0  0  0  0  0
   -4.4450   -0.9300  -18.8430 C   0  0  0  0  0  0  0  0  0  0  0  0
   -9.4580   -3.2120  -16.9760 S   0  0  0  0  0  0  0  0  0  0  0  0
   -3.0370   -0.5820  -18.7110 N   0  0  0  0  0  0  0  0  0  0  0  0
   -6.8890   -4.0230  -14.5950 C   0  0  0  0  0  0  0  0  0  0  0  0
   -3.4420   -2.4540  -15.6200 C   0  0  0  0  0  0  0  0  0  0  0  0
   -5.3080   -0.6530  -19.9290 C   0  0  0  0  0  0  0  0  0  0  0  0
   -6.2590   -2.1400  -17.6410 C   0  0  0  0  0  0  0  0  0  0  0  0
   -1.2350   -1.4510  -15.5400 C   0  0  0  0  0  0  0  0  0  0  0  0
   -6.8620   -2.8820  -16.4800 C   0  0  0  0  0  0  0  0  0  0  0  0
   -8.2000   -3.9360  -15.0280 N   0  0  0  0  0  0  0  0  0  0  0  0
   -7.1190   -1.7340  -18.7600 C   0  0  0  0  0  0  0  0  0  0  0  0
   -2.1820   -2.3080  -14.9860 C   0  0  0  0  0  0  0  0  0  0  0  0
  1 15  1  0
  2 12  1  0
  3  2  1  0
  3  1  2  0
  4 17  1  0
  5 14  4  0
  5  2  2  0
  6 11  2  0
  7 18  4  0
  8 10  2  0
  8  5  4  0
  9  4  2  0
 10  3  1  0
 12 19  2  0
 13  7  4  0
 13  8  4  0
 15 19  1  0
 16 14  1  0
 16  4  1  0
 16  6  1  0
 17 11  1  0
 18 14  4  0
M  END
$$$$

     RDKit          3D

 19 22  0  0  0  0  0  0  0  0999 V2000
   -1.3550   -0.5260  -16.8480 C   0  0  0  0  0  0  0  0  0  0  0  0
   -3.5140   -1.7160  -16.8060 C   0  0  0  0  0  0  0  0  0  0  0  0
   -2.5620   -0.8580  -17.4120 C   0  0  0  0  0  0  0  0  0  0  0  0
   -8.3170   -3.1930  -16.3230 C   0  0  0  0  0  0  0  0  0  0  0  0
   -4.7780   -1.5840  -17.6340 C   0  0  0  0  0  0  0  0  0  0  0  0
   -6.2520   -3.1770  -15.3180 N   0  0  0  0  0  0  0  0  0  0  0  0
   -6.4420   -0.8800  -19.6390 C   0  0  0  0  0  0  0  0  0  0  0  0
   -4.3980   -0.8120  -18.7520 C   0  0  0  0  0  0  0  0  0  0  0  0
   -9.4230   -2.9680  -17.1030 N   0  0  0  0  0  0  0  0  0  0  0  0
   -3.1140   -0.4460  -18.6250 N   0  0  0  0  0  0  0  0  0  0  0  0
   -7.1520   -4.0880  -14.6440 N   0  0  0  0  0  0  0  0  0  0  0  0
   -3.0590   -2.4670  -15.7250 C   0  0  0  0  0  0  0  0  0  0  0  0
   -5.2060   -0.5690  -19.7330 N   0  0  0  0  0  0  0  0  0  0  0  0
   -6.1730   -1.9940  -17.5170 C   0  0  0  0  0  0  0  0  0  0  0  0
   -0.9960   -1.2540  -15.7390 C   0  0  0  0  0  0  0  0  0  0  0  0
   -6.8600   -2.7370  -16.4140 C   0  0  0  0  0  0  0  0  0  0  0  0
   -8.3620   -4.0010  -15.2580 N   0  0  0  0  0  0  0  0  0  0  0  0
   -7.0570   -1.5880  -18.5880 C   0  0  0  0  0  0  0  0  0  0  0  0
   -1.8500   -2.2360  -15.1950 C   0  0  0  0  0  0  0  0  0  0  0  0
  1 15  4  0
  2 12  4  0
  3  1  4  0
  3  2  4  0
  4 17  4  0
  5  8  1  0
  5 14  1  0
  5  2  1  0
  6 11  4  0
  7 18  1  0
  8 10  2  0
  9  4  1  0
 10  3  1  0
 12 19  4  0
 13  7  2  0
 13  8  1  0
 14 16  1  0
 15 19  4  0
 16  4  4  0
 16  6  4  0
 17 11  4  0
 18 14  2  0
M  END
$$$$

     RDKit          3D

 19 22  0  0  0  0  0  0  0  0999 V2000
   -1.3290   -1.0410  -16.5710 C   0  0  0  0  0  0  0  0  0  0  0  0
   -3.6370   -1.8580  -16.7470 C   0  0  0  0  0  0  0  0  0  0  0  0
   -2.4460   -1.0950  -17.2990 C   0  0  0  0  0  0  0  0  0  0  0  0
   -8.1860   -3.0930  -16.5830 N   0  0  0  0  0  0  0  0  0  0  0  0
   -4.7220   -1.6170  -17.7070 C   0  0  0  0  0  0  0  0  0  0  0  0
   -6.2880   -3.1550  -15.4910 C   0  0  0  0  0  0  0  0  0  0  0  0
   -6.4010   -0.9260  -19.8960 C   0  0  0  0  0  0  0  0  0  0  0  0
   -4.2180   -1.0080  -18.8570 C   0  0  0  0  0  0  0  0  0  0  0  0
   -9.3560   -2.7740  -17.3770 C   0  0  0  0  0  0  0  0  0  0  0  0
   -2.8160   -0.7920  -18.5570 N   0  0  0  0  0  0  0  0  0  0  0  0
   -7.1860   -3.9770  -14.8400 N   0  0  0  0  0  0  0  0  0  0  0  0
   -3.5540   -2.4590  -15.5290 C   0  0  0  0  0  0  0  0  0  0  0  0
   -5.0230   -0.7080  -19.9470 C   0  0  0  0  0  0  0  0  0  0  0  0
   -6.2480   -1.9440  -17.7250 C   0  0  0  0  0  0  0  0  0  0  0  0
   -1.2030   -1.6420  -15.3370 C   0  0  0  0  0  0  0  0  0  0  0  0
   -6.8740   -2.6740  -16.6530 C   0  0  0  0  0  0  0  0  0  0  0  0
   -8.3370   -3.8660  -15.4840 N   0  0  0  0  0  0  0  0  0  0  0  0
   -6.9620   -1.5220  -18.8200 C   0  0  0  0  0  0  0  0  0  0  0  0
   -2.3420   -2.3180  -14.8430 C   0  0  0  0  0  0  0  0  0  0  0  0
  1 15  1  0
  2 12  1  0
  3  2  1  0
  3  1  2  0
  4 17  4  0
  5  2  2  0
  6 11  4  0
  7 18  4  0
  8 10  2  0
  8  5  4  0
  9  4  1  0
 10  3  1  0
 12 19  2  0
 13  7  4  0
 13  8  4  0
 14  5  4  0
 14 16  1  0
 15 19  1  0
 16  4  4  0
 16  6  4  0
 17 11  4  0
 18 14  4  0
M  END
$$$$

     RDKit          3D

 19 22  0  0  0  0  0  0  0  0999 V2000
   -1.2700   -1.2380  -16.9840 C   0  0  0  0  0  0  0  0  0  0  0  0
   -3.6340   -1.8750  -16.9760 C   0  0  0  0  0  0  0  0  0  0  0  0
   -2.5540   -1.2650  -17.6420 C   0  0  0  0  0  0  0  0  0  0  0  0
   -8.2460   -2.9840  -16.4960 C   0  0  0  0  0  0  0  0  0  0  0  0
   -4.8520   -1.6610  -17.8480 C   0  0  0  0  0  0  0  0  0  0  0  0
   -6.2720   -2.9790  -15.6520 N   0  0  0  0  0  0  0  0  0  0  0  0
   -6.4890   -0.8170  -19.9260 C   0  0  0  0  0  0  0  0  0  0  0  0
   -4.3430   -0.9770  -19.0790 C   0  0  0  0  0  0  0  0  0  0  0  0
   -9.4270   -2.6930  -17.3340 C   0  0  0  0  0  0  0  0  0  0  0  0
   -3.0300   -0.9240  -18.9250 N   0  0  0  0  0  0  0  0  0  0  0  0
   -7.0330   -3.7300  -14.8000 O   0  0  0  0  0  0  0  0  0  0  0  0
   -3.4370   -2.5530  -15.7630 C   0  0  0  0  0  0  0  0  0  0  0  0
   -5.1590   -0.5930  -20.1690 N   0  0  0  0  0  0  0  0  0  0  0  0
   -6.3690   -1.7830  -17.8240 C   0  0  0  0  0  0  0  0  0  0  0  0
   -1.1170   -1.8110  -15.7750 C   0  0  0  0  0  0  0  0  0  0  0  0
   -6.9390   -2.5460  -16.6810 C   0  0  0  0  0  0  0  0  0  0  0  0
   -8.3900   -3.7280  -15.3700 N   0  0  0  0  0  0  0  0  0  0  0  0
   -7.1190   -1.2850  -18.8300 N   0  0  0  0  0  0  0  0  0  0  0  0
   -2.2240   -2.4470  -15.0940 C   0  0  0  0  0  0  0  0  0  0  0  0
  1 15  4  0
  2 12  4  0
  3  1  4  0
  3  2  4  0
  4 17  4  0
  5 14  4  0
  5  2  4  0
  6 11  4  0
  7 18  4  0
  8 10  4  0
  8  5  1  0
  9  4  1  0
 10  3  4  0
 12 19  4  0
 13  7  4  0
 13  8  4  0
 14 16  1  0
 15 19  4  0
 16  4  4  0
 16  6  4  0
 17 11  4  0
 18 14  4  0
M  END
$$$$

     RDKit          3D

 19 22  0  0  0  0  0  0  0  0999 V2000
   -1.2680   -0.9630  -17.3210 C   0  0  0  0  0  0  0  0  0  0  0  0
   -3.5910   -1.7020  -17.0860 C   0  0  0  0  0  0  0  0  0  0  0  0
   -2.5640   -1.0610  -17.8000 C   0  0  0  0  0  0  0  0  0  0  0  0
   -8.1510   -2.7980  -16.5190 N   0  0  0  0  0  0  0  0  0  0  0  0
   -4.8250   -1.5170  -17.8420 C   0  0  0  0  0  0  0  0  0  0  0  0
   -6.2220   -2.9700  -15.4970 N   0  0  0  0  0  0  0  0  0  0  0  0
   -6.6120   -0.8060  -19.8000 C   0  0  0  0  0  0  0  0  0  0  0  0
   -4.4270   -0.8830  -19.0160 C   0  0  0  0  0  0  0  0  0  0  0  0
   -9.3030   -2.4340  -17.4450 C   0  0  0  0  0  0  0  0  0  0  0  0
   -3.0590   -0.5430  -18.9800 N   0  0  0  0  0  0  0  0  0  0  0  0
   -7.1230   -3.5860  -14.8160 N   0  0  0  0  0  0  0  0  0  0  0  0
   -3.2030   -2.2860  -15.8660 C   0  0  0  0  0  0  0  0  0  0  0  0
   -5.3110   -0.5640  -19.9810 C   0  0  0  0  0  0  0  0  0  0  0  0
   -6.2080   -1.8460  -17.6550 C   0  0  0  0  0  0  0  0  0  0  0  0
   -1.0110   -1.1840  -16.1100 C   0  0  0  0  0  0  0  0  0  0  0  0
   -6.8150   -2.5290  -16.5950 C   0  0  0  0  0  0  0  0  0  0  0  0
   -8.3150   -3.4890  -15.4070 N   0  0  0  0  0  0  0  0  0  0  0  0
   -7.0700   -1.4430  -18.7200 N   0  0  0  0  0  0  0  0  0  0  0  0
   -1.9390   -1.9940  -15.3790 C   0  0  0  0  0  0  0  0  0  0  0  0
  1 15  1  0
  2 12  1  0
  3  1  2  0
  3  2  1  0
  4 17  4  0
  5 14  4  0
  5  2  2  0
  6 11  4  0
  7 18  4  0
  8 10  2  0
  8  5  4  0
  9  4  1  0
 10  3  1  0
 12 19  2  0
 13  7  4  0
 13  8  4  0
 14 16  1  0
 15 19  1  0
 16  4  4  0
 16  6  4  0
 17 11  4  0
 18 14  4  0
M  END
$$$$

     RDKit          3D

 19 22  0  0  0  0  0  0  0  0999 V2000
   -1.1590   -1.0200  -17.0170 C   0  0  0  0  0  0  0  0  0  0  0  0
   -3.5500   -1.9220  -16.8880 C   0  0  0  0  0  0  0  0  0  0  0  0
   -2.5010   -1.0790  -17.5380 C   0  0  0  0  0  0  0  0  0  0  0  0
   -8.1010   -3.3000  -16.3310 C   0  0  0  0  0  0  0  0  0  0  0  0
   -4.7370   -1.7530  -17.7030 C   0  0  0  0  0  0  0  0  0  0  0  0
   -5.9330   -3.1820  -15.5210 N   0  0  0  0  0  0  0  0  0  0  0  0
   -6.5470   -0.8540  -19.7780 C   0  0  0  0  0  0  0  0  0  0  0  0
   -4.3520   -0.9080  -18.8010 C   0  0  0  0  0  0  0  0  0  0  0  0
   -9.3090   -3.1620  -17.1870 C   0  0  0  0  0  0  0  0  0  0  0  0
   -3.0080   -0.5670  -18.7110 O   0  0  0  0  0  0  0  0  0  0  0  0
   -6.7380   -4.0630  -14.6460 N   0  0  0  0  0  0  0  0  0  0  0  0
   -3.1130   -2.6380  -15.7680 C   0  0  0  0  0  0  0  0  0  0  0  0
   -5.2140   -0.4390  -19.8060 N   0  0  0  0  0  0  0  0  0  0  0  0
   -6.1870   -2.0680  -17.6610 C   0  0  0  0  0  0  0  0  0  0  0  0
   -0.8500   -1.7000  -15.8530 C   0  0  0  0  0  0  0  0  0  0  0  0
   -6.7550   -2.8200  -16.5070 C   0  0  0  0  0  0  0  0  0  0  0  0
   -8.0640   -4.0480  -15.1510 N   0  0  0  0  0  0  0  0  0  0  0  0
   -7.0320   -1.6190  -18.6890 C   0  0  0  0  0  0  0  0  0  0  0  0
   -1.7840   -2.5690  -15.2280 C   0  0  0  0  0  0  0  0  0  0  0  0
  1 15  4  0
  2 12  4  0
  3  1  4  0
  3  2  4  0
  4 17  4  0
  5 14  4  0
  5  2  4  0
  6 11  4  0
  7 18  4  0
  8 10  4  0
  8  5  4  0
  9  4  1  0
 10  3  4  0
 12 19  4  0
 13  7  4  0
 13  8  4  0
 14 16  1  0
 15 19  4  0
 16  4  4  0
 16  6  4  0
 17 11  4  0
 18 14  4  0
M  END
$$$$

     RDKit          3D

 19 22  0  0  0  0  0  0  0  0999 V2000
   -1.2120   -0.7530  -16.8270 C   0  0  0  0  0  0  0  0  0  0  0  0
   -3.4710   -1.8610  -16.9060 C   0  0  0  0  0  0  0  0  0  0  0  0
   -2.3800   -1.0800  -17.5450 C   0  0  0  0  0  0  0  0  0  0  0  0
   -7.9540   -3.1160  -16.3390 C   0  0  0  0  0  0  0  0  0  0  0  0
   -4.6690   -1.6350  -17.7620 C   0  0  0  0  0  0  0  0  0  0  0  0
   -5.8830   -3.1190  -15.4790 N   0  0  0  0  0  0  0  0  0  0  0  0
   -6.4540   -0.8090  -19.8030 C   0  0  0  0  0  0  0  0  0  0  0  0
   -4.1820   -0.8640  -19.0170 C   0  0  0  0  0  0  0  0  0  0  0  0
   -9.1210   -2.8930  -17.2000 C   0  0  0  0  0  0  0  0  0  0  0  0
   -2.8240   -0.6020  -18.7800 N   0  0  0  0  0  0  0  0  0  0  0  0
   -6.6690   -3.8360  -14.6850 O   0  0  0  0  0  0  0  0  0  0  0  0
   -3.1530   -2.6080  -15.7420 C   0  0  0  0  0  0  0  0  0  0  0  0
   -5.0630   -0.5780  -19.9280 N   0  0  0  0  0  0  0  0  0  0  0  0
   -6.1350   -1.8990  -17.6220 C   0  0  0  0  0  0  0  0  0  0  0  0
   -0.9030   -1.6240  -15.7420 C   0  0  0  0  0  0  0  0  0  0  0  0
   -6.6160   -2.6280  -16.5620 C   0  0  0  0  0  0  0  0  0  0  0  0
   -7.9260   -3.8030  -15.2030 N   0  0  0  0  0  0  0  0  0  0  0  0
   -6.9570   -1.4890  -18.7100 C   0  0  0  0  0  0  0  0  0  0  0  0
   -1.8790   -2.5030  -15.2170 C   0  0  0  0  0  0  0  0  0  0  0  0
  1 15  4  0
  2 12  4  0
  3  2  4  0
  3  1  4  0
  4 17  4  0
  5  8  1  0
  5 14  1  0
  5  2  1  0
  6 11  4  0
  7 18  1  0
  8 10  2  0
  9  4  1  0
 10  3  1  0
 12 19  4  0
 13  7  2  0
 13  8  1  0
 14 16  1  0
 15 19  4  0
 16  4  4  0
 16  6  4  0
 17 11  4  0
 18 14  2  0
M  END
$$$$

     RDKit          3D

 19 22  0  0  0  0  0  0  0  0999 V2000
   -1.4110   -0.9990  -16.9160 C   0  0  0  0  0  0  0  0  0  0  0  0
   -3.6350   -1.9070  -16.9080 C   0  0  0  0  0  0  0  0  0  0  0  0
   -2.6350   -1.1730  -17.5040 N   0  0  0  0  0  0  0  0  0  0  0  0
   -8.0230   -3.0380  -16.3350 C   0  0  0  0  0  0  0  0  0  0  0  0
   -4.8450   -1.6510  -17.6930 C   0  0  0  0  0  0  0  0  0  0  0  0
   -6.0660   -3.0700  -15.4410 N   0  0  0  0  0  0  0  0  0  0  0  0
   -6.4820   -0.8730  -19.7550 C   0  0  0  0  0  0  0  0  0  0  0  0
   -4.3660   -0.9720  -18.8120 C   0  0  0  0  0  0  0  0  0  0  0  0
   -9.2900   -2.8600  -17.1430 C   0  0  0  0  0  0  0  0  0  0  0  0
   -3.0720   -0.7150  -18.5920 N   0  0  0  0  0  0  0  0  0  0  0  0
   -6.9260   -3.7010  -14.6430 N   0  0  0  0  0  0  0  0  0  0  0  0
   -3.3100   -2.6780  -15.8370 C   0  0  0  0  0  0  0  0  0  0  0  0
   -5.1980   -0.6380  -19.7890 N   0  0  0  0  0  0  0  0  0  0  0  0
   -6.1840   -1.9530  -17.6370 C   0  0  0  0  0  0  0  0  0  0  0  0
   -1.1280   -1.7520  -15.8010 C   0  0  0  0  0  0  0  0  0  0  0  0
   -6.7400   -2.6200  -16.5370 C   0  0  0  0  0  0  0  0  0  0  0  0
   -8.1290   -3.7730  -15.2110 N   0  0  0  0  0  0  0  0  0  0  0  0
   -7.0440   -1.5660  -18.6730 C   0  0  0  0  0  0  0  0  0  0  0  0
   -2.1180   -2.5910  -15.2360 C   0  0  0  0  0  0  0  0  0  0  0  0
  1 15  1  0
  2 12  2  0
  3  1  1  0
  3  2  4  0
  4 17  4  0
  5 14  2  0
  5  2  4  0
  6 11  4  0
  7 18  1  0
  8 10  4  0
  8  5  4  0
  9  4  1  0
 10  3  4  0
 12 19  1  0
 13  7  2  0
 13  8  1  0
 14 16  1  0
 15 19  2  0
 16  4  4  0
 16  6  4  0
 17 11  4  0
 18 14  1  0
M  END
$$$$

     RDKit          3D

 19 22  0  0  0  0  0  0  0  0999 V2000
   -1.4740   -0.6160  -16.9810 C   0  0  0  0  0  0  0  0  0  0  0  0
   -3.6580   -1.7900  -16.9930 C   0  0  0  0  0  0  0  0  0  0  0  0
   -2.6690   -0.9890  -17.5670 C   0  0  0  0  0  0  0  0  0  0  0  0
   -8.1920   -3.1620  -16.4420 C   0  0  0  0  0  0  0  0  0  0  0  0
   -4.8890   -1.6430  -17.7770 C   0  0  0  0  0  0  0  0  0  0  0  0
   -6.2200   -3.4930  -15.6870 N   0  0  0  0  0  0  0  0  0  0  0  0
   -6.6500   -0.9520  -19.8310 C   0  0  0  0  0  0  0  0  0  0  0  0
   -4.4700   -0.9120  -18.9240 C   0  0  0  0  0  0  0  0  0  0  0  0
   -9.4700   -2.7790  -17.2400 C   0  0  0  0  0  0  0  0  0  0  0  0
   -3.1860   -0.5060  -18.7800 N   0  0  0  0  0  0  0  0  0  0  0  0
   -7.0860   -4.2290  -14.9810 N   0  0  0  0  0  0  0  0  0  0  0  0
   -3.3080   -2.6110  -15.8120 C   0  0  0  0  0  0  0  0  0  0  0  0
   -5.3780   -0.6190  -19.9750 C   0  0  0  0  0  0  0  0  0  0  0  0
   -6.2570   -2.0700  -17.6880 C   0  0  0  0  0  0  0  0  0  0  0  0
   -1.0810   -1.4990  -15.9220 C   0  0  0  0  0  0  0  0  0  0  0  0
   -6.8600   -2.8370  -16.6750 C   0  0  0  0  0  0  0  0  0  0  0  0
   -8.3170   -4.0150  -15.3620 N   0  0  0  0  0  0  0  0  0  0  0  0
   -7.1490   -1.6470  -18.7200 C   0  0  0  0  0  0  0  0  0  0  0  0
   -1.9570   -2.3640  -15.3750 C   0  0  0  0  0  0  0  0  0  0  0  0
  1 15  1  0
  2 12  1  0
  3  2  1  0
  3  1  2  0
  4 17  4  0
  5 14  4  0
  5  2  2  0
  6 11  4  0
  7 18  4  0
  8 10  2  0
  8  5  4  0
  9  4  1  0
 10  3  1  0
 12 19  2  0
 13  7  4  0
 13  8  4  0
 14 16  1  0
 15 19  1  0
 16  4  4  0
 16  6  4  0
 17 11  4  0
 18 14  4  0
M  END
$$$$

     RDKit          3D

 19 22  0  0  0  0  0  0  0  0999 V2000
   -1.2050   -1.0910  -16.7360 C   0  0  0  0  0  0  0  0  0  0  0  0
   -3.5220   -1.7700  -16.7210 C   0  0  0  0  0  0  0  0  0  0  0  0
   -2.4110   -1.1130  -17.3660 C   0  0  0  0  0  0  0  0  0  0  0  0
   -8.1530   -3.2310  -16.3260 C   0  0  0  0  0  0  0  0  0  0  0  0
   -4.7860   -1.5890  -17.5350 C   0  0  0  0  0  0  0  0  0  0  0  0
   -6.1290   -3.2980  -15.4120 N   0  0  0  0  0  0  0  0  0  0  0  0
   -6.5620   -0.9930  -19.6910 C   0  0  0  0  0  0  0  0  0  0  0  0
   -4.2870   -0.8540  -18.6980 C   0  0  0  0  0  0  0  0  0  0  0  0
   -9.3360   -3.1580  -17.2610 C   0  0  0  0  0  0  0  0  0  0  0  0
   -2.9430   -0.6430  -18.4870 N   0  0  0  0  0  0  0  0  0  0  0  0
   -6.9430   -3.9230  -14.6190 N   0  0  0  0  0  0  0  0  0  0  0  0
   -3.3680   -2.4360  -15.4520 C   0  0  0  0  0  0  0  0  0  0  0  0
   -5.1720   -0.6190  -19.6900 C   0  0  0  0  0  0  0  0  0  0  0  0
   -6.1900   -2.0670  -17.5240 C   0  0  0  0  0  0  0  0  0  0  0  0
   -1.0560   -1.7030  -15.4680 C   0  0  0  0  0  0  0  0  0  0  0  0
   -6.7950   -2.8160  -16.4750 C   0  0  0  0  0  0  0  0  0  0  0  0
   -8.2640   -3.8910  -15.1560 N   0  0  0  0  0  0  0  0  0  0  0  0
   -7.0290   -1.7650  -18.5730 C   0  0  0  0  0  0  0  0  0  0  0  0
   -2.0690   -2.2860  -14.8340 C   0  0  0  0  0  0  0  0  0  0  0  0
  1 15  1  0
  2 12  1  0
  3  1  2  0
  3  2  1  0
  4 17  4  0
  5 14  4  0
  5  2  2  0
  6 11  4  0
  7 13  4  0
  7 18  4  0
  8 10  2  0
  8  5  4  0
  9  4  1  0
 10  3  1  0
 12 19  2  0
 13  8  4  0
 14 16  1  0
 15 19  1  0
 16  4  4  0
 16  6  4  0
 17 11  4  0
 18 14  4  0
M  END
$$$$

     RDKit          3D

 19 22  0  0  0  0  0  0  0  0999 V2000
   -1.2730   -1.0750  -16.7190 C   0  0  0  0  0  0  0  0  0  0  0  0
   -3.6850   -1.8340  -16.7590 C   0  0  0  0  0  0  0  0  0  0  0  0
   -2.5360   -1.2480  -17.3680 C   0  0  0  0  0  0  0  0  0  0  0  0
   -8.2360   -3.1690  -16.4990 C   0  0  0  0  0  0  0  0  0  0  0  0
   -4.8230   -1.6040  -17.6690 C   0  0  0  0  0  0  0  0  0  0  0  0
   -6.3050   -3.2620  -15.4110 C   0  0  0  0  0  0  0  0  0  0  0  0
   -6.4770   -0.9850  -19.8790 C   0  0  0  0  0  0  0  0  0  0  0  0
   -4.2460   -1.0250  -18.8570 C   0  0  0  0  0  0  0  0  0  0  0  0
   -9.4270   -3.1350  -17.1670 O   0  0  0  0  0  0  0  0  0  0  0  0
   -2.9530   -0.8450  -18.5940 N   0  0  0  0  0  0  0  0  0  0  0  0
   -7.1400   -3.9310  -14.7190 N   0  0  0  0  0  0  0  0  0  0  0  0
   -3.4050   -2.4380  -15.4960 C   0  0  0  0  0  0  0  0  0  0  0  0
   -5.1240   -0.6770  -19.9450 C   0  0  0  0  0  0  0  0  0  0  0  0
   -6.2510   -1.9540  -17.6870 C   0  0  0  0  0  0  0  0  0  0  0  0
   -1.1260   -1.6670  -15.5310 C   0  0  0  0  0  0  0  0  0  0  0  0
   -6.8510   -2.6560  -16.6240 C   0  0  0  0  0  0  0  0  0  0  0  0
   -8.3370   -3.8860  -15.3520 N   0  0  0  0  0  0  0  0  0  0  0  0
   -7.0490   -1.6050  -18.7770 C   0  0  0  0  0  0  0  0  0  0  0  0
   -2.1950   -2.3460  -14.8330 C   0  0  0  0  0  0  0  0  0  0  0  0
  1 15  1  0
  2 12  1  0
  3  2  1  0
  3  1  2  0
  4 17  1  0
  5  2  2  0
  6 11  2  0
  7 18  4  0
  8 10  2  0
  8  5  4  0
  9  4  2  0
 10  3  1  0
 12 19  2  0
 13  7  4  0
 13  8  4  0
 14  5  4  0
 15 19  1  0
 16 14  1  0
 16  4  1  0
 16  6  1  0
 17 11  1  0
 18 14  4  0
M  END
$$$$

     RDKit          3D

 19 22  0  0  0  0  0  0  0  0999 V2000
   -1.2740   -1.5260  -16.9960 C   0  0  0  0  0  0  0  0  0  0  0  0
   -3.6920   -1.9000  -16.8650 C   0  0  0  0  0  0  0  0  0  0  0  0
   -2.5720   -1.4550  -17.5030 C   0  0  0  0  0  0  0  0  0  0  0  0
   -8.1380   -3.0180  -16.3780 C   0  0  0  0  0  0  0  0  0  0  0  0
   -4.8490   -1.6590  -17.7690 C   0  0  0  0  0  0  0  0  0  0  0  0
   -6.0780   -3.0010  -15.5670 N   0  0  0  0  0  0  0  0  0  0  0  0
   -6.4120   -0.8790  -19.9370 C   0  0  0  0  0  0  0  0  0  0  0  0
   -4.3260   -1.0390  -18.9080 C   0  0  0  0  0  0  0  0  0  0  0  0
   -9.3670   -2.8990  -17.1990 C   0  0  0  0  0  0  0  0  0  0  0  0
   -2.9620   -0.8930  -18.7290 N   0  0  0  0  0  0  0  0  0  0  0  0
   -6.8710   -3.5750  -14.7970 N   0  0  0  0  0  0  0  0  0  0  0  0
   -3.5390   -2.4330  -15.5610 C   0  0  0  0  0  0  0  0  0  0  0  0
   -5.0370   -0.6480  -20.0040 C   0  0  0  0  0  0  0  0  0  0  0  0
   -6.2400   -1.9290  -17.7810 C   0  0  0  0  0  0  0  0  0  0  0  0
   -1.1150   -2.0530  -15.6830 C   0  0  0  0  0  0  0  0  0  0  0  0
   -6.8210   -2.5730  -16.6430 C   0  0  0  0  0  0  0  0  0  0  0  0
   -8.2060   -3.6410  -15.2710 N   0  0  0  0  0  0  0  0  0  0  0  0
   -6.9990   -1.5000  -18.8520 C   0  0  0  0  0  0  0  0  0  0  0  0
   -2.2470   -2.5590  -14.9440 C   0  0  0  0  0  0  0  0  0  0  0  0
  1 15  1  0
  2 12  1  0
  3  1  2  0
  3  2  1  0
  4 17  4  0
  5  2  2  0
  6 11  4  0
  7 18  4  0
  8 10  2  0
  8  5  4  0
  9  4  1  0
 10  3  1  0
 12 19  2  0
 13  7  4  0
 13  8  4  0
 14  5  4  0
 14 16  1  0
 15 19  1  0
 16  4  4  0
 16  6  4  0
 17 11  4  0
 18 14  4  0
M  END
$$$$

     RDKit          3D

 19 22  0  0  0  0  0  0  0  0999 V2000
   -1.3580   -0.3780  -17.1520 C   0  0  0  0  0  0  0  0  0  0  0  0
   -3.5340   -1.5480  -17.0190 C   0  0  0  0  0  0  0  0  0  0  0  0
   -2.5380   -0.7620  -17.7100 C   0  0  0  0  0  0  0  0  0  0  0  0
   -8.1770   -2.7200  -16.3300 N   0  0  0  0  0  0  0  0  0  0  0  0
   -4.7910   -1.5000  -17.8560 C   0  0  0  0  0  0  0  0  0  0  0  0
   -6.1650   -3.0710  -15.6280 N   0  0  0  0  0  0  0  0  0  0  0  0
   -6.4880   -0.7520  -19.6940 C   0  0  0  0  0  0  0  0  0  0  0  0
   -4.3190   -0.7960  -19.1220 C   0  0  0  0  0  0  0  0  0  0  0  0
   -9.3200   -2.3660  -17.0840 C   0  0  0  0  0  0  0  0  0  0  0  0
   -3.0260   -0.4240  -19.0190 N   0  0  0  0  0  0  0  0  0  0  0  0
   -6.9770   -3.5520  -14.7130 N   0  0  0  0  0  0  0  0  0  0  0  0
   -3.1300   -2.2590  -15.7840 C   0  0  0  0  0  0  0  0  0  0  0  0
   -5.2670   -0.6030  -20.1430 N   0  0  0  0  0  0  0  0  0  0  0  0
   -6.1950   -1.8210  -17.7230 C   0  0  0  0  0  0  0  0  0  0  0  0
   -0.9590   -1.0300  -15.9070 C   0  0  0  0  0  0  0  0  0  0  0  0
   -6.8280   -2.4800  -16.6090 C   0  0  0  0  0  0  0  0  0  0  0  0
   -8.2320   -3.3220  -15.0900 N   0  0  0  0  0  0  0  0  0  0  0  0
   -7.0350   -1.4700  -18.7970 N   0  0  0  0  0  0  0  0  0  0  0  0
   -1.8900   -1.9880  -15.2680 C   0  0  0  0  0  0  0  0  0  0  0  0
  1 15  4  0
  2 12  4  0
  3  1  4  0
  3  2  4  0
  4 17  4  0
  5 14  2  0
  5  2  1  0
  6 11  4  0
  7 18  1  0
  8 10  2  0
  8  5  1  0
  9  4  1  0
 10  3  1  0
 12 19  4  0
 13  7  1  0
 13  8  1  0
 14 16  1  0
 15 19  4  0
 16  4  4  0
 16  6  4  0
 17 11  4  0
 18 14  1  0
M  END
$$$$

     RDKit          3D

 19 22  0  0  0  0  0  0  0  0999 V2000
   -1.1340   -0.9940  -16.8790 C   0  0  0  0  0  0  0  0  0  0  0  0
   -3.4560   -1.8280  -16.8050 C   0  0  0  0  0  0  0  0  0  0  0  0
   -2.4000   -1.0680  -17.4800 C   0  0  0  0  0  0  0  0  0  0  0  0
   -7.9950   -3.0970  -16.3010 C   0  0  0  0  0  0  0  0  0  0  0  0
   -4.6200   -1.6310  -17.6080 C   0  0  0  0  0  0  0  0  0  0  0  0
   -5.9760   -3.1350  -15.4300 N   0  0  0  0  0  0  0  0  0  0  0  0
   -6.4070   -0.9410  -19.5280 C   0  0  0  0  0  0  0  0  0  0  0  0
   -4.2140   -0.8970  -18.7120 C   0  0  0  0  0  0  0  0  0  0  0  0
   -9.2380   -2.8700  -17.1330 C   0  0  0  0  0  0  0  0  0  0  0  0
   -2.8590   -0.5570  -18.6340 N   0  0  0  0  0  0  0  0  0  0  0  0
   -6.7820   -3.7870  -14.5520 N   0  0  0  0  0  0  0  0  0  0  0  0
   -3.1970   -2.5170  -15.6350 C   0  0  0  0  0  0  0  0  0  0  0  0
   -5.1250   -0.5160  -19.7360 C   0  0  0  0  0  0  0  0  0  0  0  0
   -6.0030   -2.0220  -17.5710 C   0  0  0  0  0  0  0  0  0  0  0  0
   -0.9170   -1.6290  -15.6550 C   0  0  0  0  0  0  0  0  0  0  0  0
   -6.6940   -2.7410  -16.5020 C   0  0  0  0  0  0  0  0  0  0  0  0
   -8.0470   -3.7360  -15.1220 N   0  0  0  0  0  0  0  0  0  0  0  0
   -6.8080   -1.5890  -18.5350 N   0  0  0  0  0  0  0  0  0  0  0  0
   -1.9540   -2.3790  -15.0630 C   0  0  0  0  0  0  0  0  0  0  0  0
  1 15  1  0
  2 12  1  0
  3  1  2  0
  3  2  1  0
  4 17  4  0
  5 14  4  0
  5  2  2  0
  6 11  4  0
  7 18  4  0
  8 10  2  0
  8  5  4  0
  9  4  1  0
 10  3  1  0
 12 19  2  0
 13  7  4  0
 13  8  4  0
 14 16  1  0
 15 19  1  0
 16  4  4  0
 16  6  4  0
 17 11  4  0
 18 14  4  0
M  END
$$$$

     RDKit          3D

 19 22  0  0  0  0  0  0  0  0999 V2000
   -1.2110   -0.9160  -16.8140 C   0  0  0  0  0  0  0  0  0  0  0  0
   -3.4460   -1.8710  -16.7660 C   0  0  0  0  0  0  0  0  0  0  0  0
   -2.5120   -1.0250  -17.3430 C   0  0  0  0  0  0  0  0  0  0  0  0
   -7.9470   -3.0380  -16.2600 C   0  0  0  0  0  0  0  0  0  0  0  0
   -4.7210   -1.7030  -17.5630 C   0  0  0  0  0  0  0  0  0  0  0  0
   -6.0700   -3.1360  -15.4010 N   0  0  0  0  0  0  0  0  0  0  0  0
   -6.3920   -1.0100  -19.6660 C   0  0  0  0  0  0  0  0  0  0  0  0
   -4.2550   -0.8990  -18.6760 C   0  0  0  0  0  0  0  0  0  0  0  0
   -9.3670   -2.3730  -17.1510 S   0  0  0  0  0  0  0  0  0  0  0  0
   -2.9420   -0.5150  -18.4890 N   0  0  0  0  0  0  0  0  0  0  0  0
   -6.9120   -3.9320  -14.6540 N   0  0  0  0  0  0  0  0  0  0  0  0
   -3.1100   -2.7310  -15.6940 C   0  0  0  0  0  0  0  0  0  0  0  0
   -5.1410   -0.6350  -19.7680 N   0  0  0  0  0  0  0  0  0  0  0  0
   -6.1020   -1.8700  -17.5080 C   0  0  0  0  0  0  0  0  0  0  0  0
   -0.9280   -1.6800  -15.7210 C   0  0  0  0  0  0  0  0  0  0  0  0
   -6.7400   -2.6500  -16.4830 C   0  0  0  0  0  0  0  0  0  0  0  0
   -7.9980   -3.8250  -15.1730 N   0  0  0  0  0  0  0  0  0  0  0  0
   -6.8940   -1.5560  -18.5770 N   0  0  0  0  0  0  0  0  0  0  0  0
   -1.8480   -2.5650  -15.1470 C   0  0  0  0  0  0  0  0  0  0  0  0
  1 15  4  0
  2 12  4  0
  3  1  4  0
  3  2  4  0
  4 17  1  0
  5 14  4  0
  5  2  4  0
  6 11  1  0
  7 18  4  0
  8 10  4  0
  8  5  1  0
  9  4  2  0
 10  3  4  0
 12 19  4  0
 13  7  4  0
 13  8  4  0
 14 16  1  0
 15 19  4  0
 16  4  1  0
 16  6  2  0
 17 11  2  0
 18 14  4  0
M  END
$$$$

     RDKit          3D

 19 22  0  0  0  0  0  0  0  0999 V2000
   -1.3050   -1.2910  -17.1010 C   0  0  0  0  0  0  0  0  0  0  0  0
   -3.6830   -1.9700  -16.9090 C   0  0  0  0  0  0  0  0  0  0  0  0
   -2.6200   -1.2990  -17.5980 C   0  0  0  0  0  0  0  0  0  0  0  0
   -8.1590   -3.2650  -16.2170 C   0  0  0  0  0  0  0  0  0  0  0  0
   -4.8770   -1.6980  -17.7310 C   0  0  0  0  0  0  0  0  0  0  0  0
   -6.0890   -3.1240  -15.5250 O   0  0  0  0  0  0  0  0  0  0  0  0
   -6.6100   -0.8880  -19.8300 C   0  0  0  0  0  0  0  0  0  0  0  0
   -4.4170   -1.0180  -18.8670 C   0  0  0  0  0  0  0  0  0  0  0  0
   -9.4120   -2.9570  -17.0170 C   0  0  0  0  0  0  0  0  0  0  0  0
   -3.0700   -0.7740  -18.7890 N   0  0  0  0  0  0  0  0  0  0  0  0
   -6.7530   -3.9880  -14.7860 N   0  0  0  0  0  0  0  0  0  0  0  0
   -3.4220   -2.6210  -15.7720 C   0  0  0  0  0  0  0  0  0  0  0  0
   -5.2710   -0.5710  -19.9170 C   0  0  0  0  0  0  0  0  0  0  0  0
   -6.2540   -2.0420  -17.6660 C   0  0  0  0  0  0  0  0  0  0  0  0
   -1.0420   -1.9580  -15.8530 C   0  0  0  0  0  0  0  0  0  0  0  0
   -6.8380   -2.7220  -16.4920 C   0  0  0  0  0  0  0  0  0  0  0  0
   -8.0770   -4.0930  -15.1770 N   0  0  0  0  0  0  0  0  0  0  0  0
   -7.1200   -1.6120  -18.6530 C   0  0  0  0  0  0  0  0  0  0  0  0
   -2.0880   -2.6250  -15.1960 C   0  0  0  0  0  0  0  0  0  0  0  0
  1 15  1  0
  2 12  1  0
  3  1  2  0
  3  2  1  0
  4 17  4  0
  5 14  4  0
  5  2  2  0
  6 11  4  0
  7 18  4  0
  8 10  2  0
  8  5  4  0
  9  4  1  0
 10  3  1  0
 12 19  2  0
 13  7  4  0
 13  8  4  0
 14 16  1  0
 15 19  1  0
 16  4  4  0
 16  6  4  0
 17 11  4  0
 18 14  4  0
M  END
$$$$

     RDKit          3D

 19 22  0  0  0  0  0  0  0  0999 V2000
   -1.5380   -0.7720  -17.0610 C   0  0  0  0  0  0  0  0  0  0  0  0
   -3.8110   -1.6490  -17.0730 C   0  0  0  0  0  0  0  0  0  0  0  0
   -2.8100   -1.0240  -17.6650 C   0  0  0  0  0  0  0  0  0  0  0  0
   -8.2350   -3.1180  -16.3240 C   0  0  0  0  0  0  0  0  0  0  0  0
   -5.0460   -1.5520  -17.9110 C   0  0  0  0  0  0  0  0  0  0  0  0
   -6.1430   -3.3720  -15.7270 N   0  0  0  0  0  0  0  0  0  0  0  0
   -6.7730   -0.9310  -19.9880 C   0  0  0  0  0  0  0  0  0  0  0  0
   -4.5670   -0.8190  -19.0160 C   0  0  0  0  0  0  0  0  0  0  0  0
   -9.5160   -2.8430  -16.9720 C   0  0  0  0  0  0  0  0  0  0  0  0
   -3.2530   -0.4900  -18.9000 N   0  0  0  0  0  0  0  0  0  0  0  0
   -6.9110   -4.1240  -14.8260 N   0  0  0  0  0  0  0  0  0  0  0  0
   -3.5270   -2.4480  -15.9270 C   0  0  0  0  0  0  0  0  0  0  0  0
   -5.4330   -0.5270  -20.0550 C   0  0  0  0  0  0  0  0  0  0  0  0
   -6.4040   -1.9430  -17.7820 C   0  0  0  0  0  0  0  0  0  0  0  0
   -1.3460   -1.4420  -15.8270 C   0  0  0  0  0  0  0  0  0  0  0  0
   -6.8590   -2.7870  -16.6340 C   0  0  0  0  0  0  0  0  0  0  0  0
   -8.2140   -3.9160  -15.2350 N   0  0  0  0  0  0  0  0  0  0  0  0
   -7.2400   -1.6530  -18.8680 C   0  0  0  0  0  0  0  0  0  0  0  0
   -2.2420   -2.2260  -15.3260 C   0  0  0  0  0  0  0  0  0  0  0  0
  1 15  1  0
  2 12  1  0
  3  2  1  0
  3  1  2  0
  4 17  4  0
  5 14  4  0
  5  2  2  0
  6 11  4  0
  7 18  4  0
  8 10  2  0
  8  5  4  0
  9  4  1  0
 10  3  1  0
 12 19  2  0
 13  7  4  0
 13  8  4  0
 14 16  1  0
 15 19  1  0
 16  4  4  0
 16  6  4  0
 17 11  4  0
 18 14  4  0
M  END
$$$$

     RDKit          3D

 19 22  0  0  0  0  0  0  0  0999 V2000
   -1.4780   -0.8110  -16.7500 C   0  0  0  0  0  0  0  0  0  0  0  0
   -3.7300   -1.8380  -16.7090 C   0  0  0  0  0  0  0  0  0  0  0  0
   -2.7210   -1.0490  -17.3580 C   0  0  0  0  0  0  0  0  0  0  0  0
   -8.2610   -3.2630  -16.2110 C   0  0  0  0  0  0  0  0  0  0  0  0
   -4.9250   -1.7160  -17.5170 C   0  0  0  0  0  0  0  0  0  0  0  0
   -6.1830   -3.4320  -15.1520 C   0  0  0  0  0  0  0  0  0  0  0  0
   -6.6190   -0.9570  -19.6680 C   0  0  0  0  0  0  0  0  0  0  0  0
   -4.4630   -0.8820  -18.7110 C   0  0  0  0  0  0  0  0  0  0  0  0
   -9.5300   -3.1420  -17.1590 C   0  0  0  0  0  0  0  0  0  0  0  0
   -3.1460   -0.5950  -18.5400 N   0  0  0  0  0  0  0  0  0  0  0  0
   -7.1680   -4.0350  -14.3640 N   0  0  0  0  0  0  0  0  0  0  0  0
   -3.4170   -2.5750  -15.5410 C   0  0  0  0  0  0  0  0  0  0  0  0
   -5.3790   -0.5350  -19.6980 C   0  0  0  0  0  0  0  0  0  0  0  0
   -6.2870   -2.1150  -17.5250 C   0  0  0  0  0  0  0  0  0  0  0  0
   -1.0990   -1.5180  -15.5570 C   0  0  0  0  0  0  0  0  0  0  0  0
   -6.9090   -2.8960  -16.3890 C   0  0  0  0  0  0  0  0  0  0  0  0
   -8.3400   -4.0300  -15.0100 N   0  0  0  0  0  0  0  0  0  0  0  0
   -7.1210   -1.7150  -18.5720 C   0  0  0  0  0  0  0  0  0  0  0  0
   -2.1050   -2.4420  -15.0420 C   0  0  0  0  0  0  0  0  0  0  0  0
  1 15  1  0
  2 12  1  0
  3  1  2  0
  3  2  1  0
  4 17  4  0
  5  2  2  0
  6 11  4  0
  7 18  4  0
  8 10  2  0
  8  5  4  0
  9  4  1  0
 10  3  1  0
 12 19  2  0
 13  7  4  0
 13  8  4  0
 14  5  4  0
 14 16  1  0
 15 19  1  0
 16  4  4  0
 16  6  4  0
 17 11  4  0
 18 14  4  0
M  END
$$$$

     RDKit          3D

 19 22  0  0  0  0  0  0  0  0999 V2000
   -1.3360   -1.1240  -16.7980 C   0  0  0  0  0  0  0  0  0  0  0  0
   -3.6220   -1.9020  -16.8450 C   0  0  0  0  0  0  0  0  0  0  0  0
   -2.5850   -1.1950  -17.5030 C   0  0  0  0  0  0  0  0  0  0  0  0
   -8.2540   -3.0310  -16.5400 C   0  0  0  0  0  0  0  0  0  0  0  0
   -4.8040   -1.6830  -17.7620 C   0  0  0  0  0  0  0  0  0  0  0  0
   -6.3500   -3.1050  -15.3740 C   0  0  0  0  0  0  0  0  0  0  0  0
   -6.4940   -0.7770  -19.8430 C   0  0  0  0  0  0  0  0  0  0  0  0
   -4.3060   -0.9910  -18.8650 C   0  0  0  0  0  0  0  0  0  0  0  0
   -9.4830   -2.8390  -17.5940 Cl  0  0  0  0  0  0  0  0  0  0  0  0
   -2.9730   -0.8300  -18.5990 N   0  0  0  0  0  0  0  0  0  0  0  0
   -7.2350   -3.7620  -14.7270 N   0  0  0  0  0  0  0  0  0  0  0  0
   -3.4500   -2.5590  -15.6220 C   0  0  0  0  0  0  0  0  0  0  0  0
   -5.0880   -0.5180  -19.8660 C   0  0  0  0  0  0  0  0  0  0  0  0
   -6.2270   -1.9750  -17.6920 C   0  0  0  0  0  0  0  0  0  0  0  0
   -1.1910   -1.6800  -15.5590 C   0  0  0  0  0  0  0  0  0  0  0  0
   -6.9080   -2.6630  -16.5700 C   0  0  0  0  0  0  0  0  0  0  0  0
   -8.3700   -3.7390  -15.3080 N   0  0  0  0  0  0  0  0  0  0  0  0
   -6.9790   -1.5330  -18.7450 C   0  0  0  0  0  0  0  0  0  0  0  0
   -2.2190   -2.4340  -14.9850 C   0  0  0  0  0  0  0  0  0  0  0  0
  1 15  1  0
  2 12  1  0
  3  2  1  0
  3  1  2  0
  4 17  4  0
  5 14  4  0
  5  2  2  0
  6 11  4  0
  7 18  4  0
  8 10  2  0
  8  5  4  0
  9  4  1  0
 10  3  1  0
 12 19  2  0
 13  7  4  0
 13  8  4  0
 14 16  1  0
 15 19  1  0
 16  4  4  0
 16  6  4  0
 17 11  4  0
 18 14  4  0
M  END
$$$$

     RDKit          3D

 19 22  0  0  0  0  0  0  0  0999 V2000
   -1.3240   -0.9750  -17.0970 C   0  0  0  0  0  0  0  0  0  0  0  0
   -3.6590   -1.6820  -17.0370 C   0  0  0  0  0  0  0  0  0  0  0  0
   -2.6400   -1.1450  -17.6750 C   0  0  0  0  0  0  0  0  0  0  0  0
   -8.2800   -2.9420  -16.4830 C   0  0  0  0  0  0  0  0  0  0  0  0
   -4.9120   -1.5480  -17.9360 C   0  0  0  0  0  0  0  0  0  0  0  0
   -6.2020   -2.9700  -15.6820 N   0  0  0  0  0  0  0  0  0  0  0  0
   -6.5610   -0.9300  -20.0220 C   0  0  0  0  0  0  0  0  0  0  0  0
   -4.4360   -0.9360  -19.0650 C   0  0  0  0  0  0  0  0  0  0  0  0
   -9.3800   -2.6540  -17.1970 N   0  0  0  0  0  0  0  0  0  0  0  0
   -3.1110   -0.7280  -18.9860 N   0  0  0  0  0  0  0  0  0  0  0  0
   -7.0450   -3.7210  -14.8700 N   0  0  0  0  0  0  0  0  0  0  0  0
   -3.5190   -2.2990  -15.7910 C   0  0  0  0  0  0  0  0  0  0  0  0
   -5.2970   -0.6130  -20.1180 N   0  0  0  0  0  0  0  0  0  0  0  0
   -6.2590   -1.8390  -17.8150 C   0  0  0  0  0  0  0  0  0  0  0  0
   -1.1930   -1.5950  -15.9230 C   0  0  0  0  0  0  0  0  0  0  0  0
   -6.9320   -2.5630  -16.6740 C   0  0  0  0  0  0  0  0  0  0  0  0
   -8.3690   -3.6750  -15.3600 N   0  0  0  0  0  0  0  0  0  0  0  0
   -7.1010   -1.5670  -18.9260 C   0  0  0  0  0  0  0  0  0  0  0  0
   -2.2350   -2.2190  -15.2530 C   0  0  0  0  0  0  0  0  0  0  0  0
  1 15  4  0
  2 12  4  0
  3  1  4  0
  3  2  4  0
  4 17  4  0
  5 14  2  0
  5  2  1  0
  6 11  4  0
  7 18  1  0
  8 10  2  0
  8  5  1  0
  9  4  1  0
 10  3  1  0
 12 19  4  0
 13  7  2  0
 13  8  1  0
 14 16  1  0
 15 19  4  0
 16  4  4  0
 16  6  4  0
 17 11  4  0
 18 14  1  0
M  END
$$$$

     RDKit          3D

 19 22  0  0  0  0  0  0  0  0999 V2000
   -1.2220   -0.4310  -17.1410 C   0  0  0  0  0  0  0  0  0  0  0  0
   -3.4670   -1.6200  -17.0120 C   0  0  0  0  0  0  0  0  0  0  0  0
   -2.4200   -0.8450  -17.7380 C   0  0  0  0  0  0  0  0  0  0  0  0
   -8.1790   -3.0110  -16.5290 C   0  0  0  0  0  0  0  0  0  0  0  0
   -4.7510   -1.5260  -17.8330 C   0  0  0  0  0  0  0  0  0  0  0  0
   -6.1470   -2.9440  -15.5300 N   0  0  0  0  0  0  0  0  0  0  0  0
   -6.5660   -0.8780  -19.8590 C   0  0  0  0  0  0  0  0  0  0  0  0
   -4.3310   -0.8070  -19.0640 C   0  0  0  0  0  0  0  0  0  0  0  0
   -9.4390   -2.8030  -17.2700 C   0  0  0  0  0  0  0  0  0  0  0  0
   -2.9620   -0.5980  -18.9480 N   0  0  0  0  0  0  0  0  0  0  0  0
   -7.0150   -3.6480  -14.8690 N   0  0  0  0  0  0  0  0  0  0  0  0
   -3.0260   -2.2810  -15.8190 C   0  0  0  0  0  0  0  0  0  0  0  0
   -5.2740   -0.6020  -19.9730 N   0  0  0  0  0  0  0  0  0  0  0  0
   -6.2040   -1.7770  -17.7520 C   0  0  0  0  0  0  0  0  0  0  0  0
   -0.9040   -1.1350  -15.8630 C   0  0  0  0  0  0  0  0  0  0  0  0
   -6.8550   -2.4710  -16.6660 C   0  0  0  0  0  0  0  0  0  0  0  0
   -8.1670   -3.7260  -15.4260 N   0  0  0  0  0  0  0  0  0  0  0  0
   -7.0200   -1.4130  -18.7830 N   0  0  0  0  0  0  0  0  0  0  0  0
   -1.8520   -2.0630  -15.2600 C   0  0  0  0  0  0  0  0  0  0  0  0
  1 15  4  0
  2 12  4  0
  3  1  4  0
  3  2  4  0
  4 17  4  0
  5 14  4  0
  5  2  4  0
  6 11  4  0
  7 18  4  0
  8 10  4  0
  8  5  1  0
  9  4  1  0
 10  3  4  0
 12 19  4  0
 13  7  4  0
 13  8  4  0
 14 16  1  0
 15 19  4  0
 16  4  4  0
 16  6  4  0
 17 11  4  0
 18 14  4  0
M  END
$$$$

     RDKit          3D

 19 22  0  0  0  0  0  0  0  0999 V2000
   -1.2130   -1.0780  -16.9940 C   0  0  0  0  0  0  0  0  0  0  0  0
   -3.4440   -1.8680  -16.9010 C   0  0  0  0  0  0  0  0  0  0  0  0
   -2.5040   -1.1450  -17.5310 C   0  0  0  0  0  0  0  0  0  0  0  0
   -8.0490   -3.1120  -16.4020 C   0  0  0  0  0  0  0  0  0  0  0  0
   -4.7410   -1.6480  -17.6900 C   0  0  0  0  0  0  0  0  0  0  0  0
   -5.9990   -3.2810  -15.5130 N   0  0  0  0  0  0  0  0  0  0  0  0
   -6.4080   -0.8940  -19.5100 C   0  0  0  0  0  0  0  0  0  0  0  0
   -4.2720   -0.8650  -18.8230 C   0  0  0  0  0  0  0  0  0  0  0  0
   -9.0320   -2.9800  -17.1520 O   0  0  0  0  0  0  0  0  0  0  0  0
   -2.9380   -0.6020  -18.7650 N   0  0  0  0  0  0  0  0  0  0  0  0
   -6.9010   -4.0230  -14.7070 N   0  0  0  0  0  0  0  0  0  0  0  0
   -3.2370   -2.4700  -15.6970 C   0  0  0  0  0  0  0  0  0  0  0  0
   -5.2100   -0.5380  -19.7670 N   0  0  0  0  0  0  0  0  0  0  0  0
   -6.0680   -1.9730  -17.6320 C   0  0  0  0  0  0  0  0  0  0  0  0
   -0.9900   -1.6950  -15.7400 C   0  0  0  0  0  0  0  0  0  0  0  0
   -6.6570   -2.7440  -16.5090 C   0  0  0  0  0  0  0  0  0  0  0  0
   -8.1110   -3.9570  -15.2110 N   0  0  0  0  0  0  0  0  0  0  0  0
   -6.8950   -1.5990  -18.5990 N   0  0  0  0  0  0  0  0  0  0  0  0
   -2.0240   -2.3810  -15.1540 C   0  0  0  0  0  0  0  0  0  0  0  0
  1 15  4  0
  2 12  4  0
  3  1  4  0
  3  2  4  0
  4 17  1  0
  5 14  4  0
  5  2  4  0
  6 11  1  0
  7 18  4  0
  8 10  4  0
  8  5  1  0
  9  4  2  0
 10  3  4  0
 12 19  4  0
 13  7  4  0
 13  8  4  0
 14 16  1  0
 15 19  4  0
 16  4  1  0
 16  6  2  0
 17 11  2  0
 18 14  4  0
M  END
$$$$

     RDKit          3D

 19 22  0  0  0  0  0  0  0  0999 V2000
   -1.2310   -0.7800  -16.8790 C   0  0  0  0  0  0  0  0  0  0  0  0
   -3.4870   -1.8360  -16.9610 C   0  0  0  0  0  0  0  0  0  0  0  0
   -2.4890   -0.8260  -17.4620 C   0  0  0  0  0  0  0  0  0  0  0  0
   -7.8970   -2.9140  -16.3650 C   0  0  0  0  0  0  0  0  0  0  0  0
   -4.6300   -1.5420  -17.8160 C   0  0  0  0  0  0  0  0  0  0  0  0
   -5.8690   -3.0400  -15.5420 N   0  0  0  0  0  0  0  0  0  0  0  0
   -6.3380   -0.8410  -19.8360 C   0  0  0  0  0  0  0  0  0  0  0  0
   -4.2390   -0.8140  -18.8600 C   0  0  0  0  0  0  0  0  0  0  0  0
   -9.1020   -2.7330  -17.2230 C   0  0  0  0  0  0  0  0  0  0  0  0
   -2.9210   -0.4730  -18.6810 N   0  0  0  0  0  0  0  0  0  0  0  0
   -6.6840   -3.6870  -14.7520 C   0  0  0  0  0  0  0  0  0  0  0  0
   -3.1300   -2.7420  -15.9820 C   0  0  0  0  0  0  0  0  0  0  0  0
   -5.0990   -0.4930  -19.8900 N   0  0  0  0  0  0  0  0  0  0  0  0
   -5.9940   -1.8430  -17.6980 C   0  0  0  0  0  0  0  0  0  0  0  0
   -0.8850   -1.6050  -15.7770 C   0  0  0  0  0  0  0  0  0  0  0  0
   -6.5030   -2.5870  -16.5880 C   0  0  0  0  0  0  0  0  0  0  0  0
   -7.9410   -3.6250  -15.2250 N   0  0  0  0  0  0  0  0  0  0  0  0
   -6.8500   -1.4470  -18.7160 N   0  0  0  0  0  0  0  0  0  0  0  0
   -1.8320   -2.6090  -15.3530 C   0  0  0  0  0  0  0  0  0  0  0  0
  1 15  4  0
  2 12  4  0
  3  2  4  0
  3  1  4  0
  4 17  4  0
  5 14  4  0
  5  2  4  0
  6 11  4  0
  7 18  4  0
  8 10  4  0
  8  5  1  0
  9  4  1  0
 10  3  4  0
 12 19  4  0
 13  7  4  0
 13  8  4  0
 14 16  1  0
 15 19  4  0
 16  4  4  0
 16  6  4  0
 17 11  4  0
 18 14  4  0
M  END
$$$$

     RDKit          3D

 19 22  0  0  0  0  0  0  0  0999 V2000
   -1.1930   -1.4340  -17.0760 C   0  0  0  0  0  0  0  0  0  0  0  0
   -3.5820   -1.9800  -16.8400 C   0  0  0  0  0  0  0  0  0  0  0  0
   -2.4680   -1.3270  -17.5700 C   0  0  0  0  0  0  0  0  0  0  0  0
   -8.1130   -3.1400  -16.1220 C   0  0  0  0  0  0  0  0  0  0  0  0
   -4.7690   -1.7640  -17.6930 C   0  0  0  0  0  0  0  0  0  0  0  0
   -5.9960   -3.4000  -15.5590 N   0  0  0  0  0  0  0  0  0  0  0  0
   -6.5370   -0.9050  -19.7180 C   0  0  0  0  0  0  0  0  0  0  0  0
   -4.2860   -1.0760  -18.8210 C   0  0  0  0  0  0  0  0  0  0  0  0
   -9.4180   -2.8780  -16.7980 C   0  0  0  0  0  0  0  0  0  0  0  0
   -2.9060   -0.8310  -18.6850 N   0  0  0  0  0  0  0  0  0  0  0  0
   -6.7640   -4.0520  -14.5770 N   0  0  0  0  0  0  0  0  0  0  0  0
   -3.3330   -2.6460  -15.5900 C   0  0  0  0  0  0  0  0  0  0  0  0
   -5.1930   -0.6060  -19.8780 C   0  0  0  0  0  0  0  0  0  0  0  0
   -6.1980   -2.1260  -17.6030 C   0  0  0  0  0  0  0  0  0  0  0  0
   -0.9510   -2.1620  -15.8220 C   0  0  0  0  0  0  0  0  0  0  0  0
   -6.7450   -2.8460  -16.4190 C   0  0  0  0  0  0  0  0  0  0  0  0
   -8.0760   -3.8240  -15.0040 N   0  0  0  0  0  0  0  0  0  0  0  0
   -7.0450   -1.6090  -18.6280 C   0  0  0  0  0  0  0  0  0  0  0  0
   -2.0250   -2.6850  -15.0980 C   0  0  0  0  0  0  0  0  0  0  0  0
  1 15  1  0
  2 12  1  0
  3  1  2  0
  3  2  1  0
  4 17  4  0
  5 14  4  0
  5  2  2  0
  6 11  4  0
  7 18  4  0
  8 10  2  0
  8  5  4  0
  9  4  1  0
 10  3  1  0
 12 19  2  0
 13  7  4  0
 13  8  4  0
 14 16  1  0
 15 19  1  0
 16  4  4  0
 16  6  4  0
 17 11  4  0
 18 14  4  0
M  END
$$$$

     RDKit          3D

 19 22  0  0  0  0  0  0  0  0999 V2000
   -1.1960   -0.8710  -16.9770 C   0  0  0  0  0  0  0  0  0  0  0  0
   -3.5890   -1.7940  -16.8370 C   0  0  0  0  0  0  0  0  0  0  0  0
   -2.4750   -1.1130  -17.5560 C   0  0  0  0  0  0  0  0  0  0  0  0
   -8.1570   -3.0130  -16.3100 C   0  0  0  0  0  0  0  0  0  0  0  0
   -4.7340   -1.6760  -17.6590 C   0  0  0  0  0  0  0  0  0  0  0  0
   -6.1060   -3.4520  -15.4630 N   0  0  0  0  0  0  0  0  0  0  0  0
   -6.5710   -0.9700  -19.7700 C   0  0  0  0  0  0  0  0  0  0  0  0
   -4.3630   -0.9360  -18.9070 C   0  0  0  0  0  0  0  0  0  0  0  0
   -9.2950   -2.5900  -17.1160 C   0  0  0  0  0  0  0  0  0  0  0  0
   -3.0080   -0.6130  -18.7470 N   0  0  0  0  0  0  0  0  0  0  0  0
   -7.0330   -4.0580  -14.6950 N   0  0  0  0  0  0  0  0  0  0  0  0
   -3.2650   -2.4770  -15.6260 C   0  0  0  0  0  0  0  0  0  0  0  0
   -5.2280   -0.6280  -19.9200 C   0  0  0  0  0  0  0  0  0  0  0  0
   -6.1480   -1.9830  -17.5720 C   0  0  0  0  0  0  0  0  0  0  0  0
   -1.0180   -1.4520  -15.6910 C   0  0  0  0  0  0  0  0  0  0  0  0
   -6.7210   -2.7840  -16.4300 C   0  0  0  0  0  0  0  0  0  0  0  0
   -8.2650   -3.7030  -15.0970 N   0  0  0  0  0  0  0  0  0  0  0  0
   -6.9900   -1.6460  -18.5860 C   0  0  0  0  0  0  0  0  0  0  0  0
   -1.9700   -2.2310  -15.0390 C   0  0  0  0  0  0  0  0  0  0  0  0
  1 15  1  0
  2 12  1  0
  3  1  2  0
  3  2  1  0
  4 17  4  0
  5 14  4  0
  5  2  2  0
  6 11  4  0
  7 18  4  0
  8 10  2  0
  8  5  4  0
  9  4  1  0
 10  3  1  0
 12 19  2  0
 13  7  4  0
 13  8  4  0
 14 16  1  0
 15 19  1  0
 16  4  4  0
 16  6  4  0
 17 11  4  0
 18 14  4  0
M  END
$$$$

     RDKit          3D

 19 22  0  0  0  0  0  0  0  0999 V2000
   -1.3100   -0.7130  -16.8030 C   0  0  0  0  0  0  0  0  0  0  0  0
   -3.5160   -1.7290  -16.7500 C   0  0  0  0  0  0  0  0  0  0  0  0
   -2.6130   -0.9110  -17.3710 C   0  0  0  0  0  0  0  0  0  0  0  0
   -8.0380   -3.2430  -16.2910 C   0  0  0  0  0  0  0  0  0  0  0  0
   -4.7560   -1.6520  -17.6030 C   0  0  0  0  0  0  0  0  0  0  0  0
   -5.9960   -3.1070  -15.4520 C   0  0  0  0  0  0  0  0  0  0  0  0
   -6.5630   -0.9930  -19.6080 C   0  0  0  0  0  0  0  0  0  0  0  0
   -4.4050   -0.8260  -18.6990 C   0  0  0  0  0  0  0  0  0  0  0  0
   -9.1640   -3.1440  -17.0780 N   0  0  0  0  0  0  0  0  0  0  0  0
   -3.1020   -0.3900  -18.5520 N   0  0  0  0  0  0  0  0  0  0  0  0
   -6.9460   -4.0890  -14.6330 N   0  0  0  0  0  0  0  0  0  0  0  0
   -3.1930   -2.4600  -15.6280 C   0  0  0  0  0  0  0  0  0  0  0  0
   -5.2620   -0.5530  -19.7380 C   0  0  0  0  0  0  0  0  0  0  0  0
   -6.1610   -2.0480  -17.5010 C   0  0  0  0  0  0  0  0  0  0  0  0
   -1.0160   -1.3830  -15.5990 C   0  0  0  0  0  0  0  0  0  0  0  0
   -6.6860   -2.8090  -16.4510 C   0  0  0  0  0  0  0  0  0  0  0  0
   -8.1650   -4.0580  -15.2330 N   0  0  0  0  0  0  0  0  0  0  0  0
   -6.9600   -1.7410  -18.5460 C   0  0  0  0  0  0  0  0  0  0  0  0
   -1.9360   -2.2200  -15.0330 C   0  0  0  0  0  0  0  0  0  0  0  0
  1 15  1  0
  2 12  1  0
  3  1  2  0
  3  2  1  0
  4 17  4  0
  5 14  4  0
  5  2  2  0
  6 11  4  0
  7 18  4  0
  8 10  2  0
  8  5  4  0
  9  4  1  0
 10  3  1  0
 12 19  2  0
 13  7  4  0
 13  8  4  0
 14 16  1  0
 15 19  1  0
 16  4  4  0
 16  6  4  0
 17 11  4  0
 18 14  4  0
M  END
$$$$
