
     RDKit          3D

 19 22  0  0  0  0  0  0  0  0999 V2000
   -1.5270   -1.2020  -16.8120 C   0  0  0  0  0  0  0  0  0  0  0  0
   -3.8190   -2.0910  -17.0520 C   0  0  0  0  0  0  0  0  0  0  0  0
   -2.6810   -1.3930  -17.4880 C   0  0  0  0  0  0  0  0  0  0  0  0
   -8.3870   -3.0170  -16.4260 C   0  0  0  0  0  0  0  0  0  0  0  0
   -5.0480   -1.7340  -17.8810 C   0  0  0  0  0  0  0  0  0  0  0  0
   -6.2940   -3.0080  -15.5740 N   0  0  0  0  0  0  0  0  0  0  0  0
   -6.9150   -0.9510  -19.7380 C   0  0  0  0  0  0  0  0  0  0  0  0
   -4.6940   -0.9590  -18.9630 C   0  0  0  0  0  0  0  0  0  0  0  0
   -9.5650   -2.7390  -17.2650 C   0  0  0  0  0  0  0  0  0  0  0  0
   -2.9780   -0.5950  -19.0360 S   0  0  0  0  0  0  0  0  0  0  0  0
   -7.1780   -3.6610  -14.7260 N   0  0  0  0  0  0  0  0  0  0  0  0
   -3.5370   -2.9180  -15.9950 C   0  0  0  0  0  0  0  0  0  0  0  0
   -5.6220   -0.5500  -19.8990 C   0  0  0  0  0  0  0  0  0  0  0  0
   -6.4800   -2.0300  -17.7460 C   0  0  0  0  0  0  0  0  0  0  0  0
   -1.4180   -1.9730  -15.6350 N   0  0  0  0  0  0  0  0  0  0  0  0
   -7.0990   -2.6940  -16.6080 C   0  0  0  0  0  0  0  0  0  0  0  0
   -8.5230   -3.6230  -15.2440 N   0  0  0  0  0  0  0  0  0  0  0  0
   -7.3500   -1.6130  -18.6840 N   0  0  0  0  0  0  0  0  0  0  0  0
   -2.3420   -2.8730  -15.2680 C   0  0  0  0  0  0  0  0  0  0  0  0
  1 15  4  0
  2 12  4  0
  3  2  4  0
  3  1  4  0
  4 17  4  0
  5 14  4  0
  5  2  4  0
  6 11  4  0
  7 18  4  0
  8  5  4  0
  9  4  1  0
 10  8  4  0
 10  3  4  0
 12 19  4  0
 13  7  4  0
 13  8  4  0
 14 16  1  0
 15 19  4  0
 16  4  4  0
 16  6  4  0
 17 11  4  0
 18 14  4  0
M  END
$$$$

     RDKit          3D

 19 22  0  0  0  0  0  0  0  0999 V2000
   -1.7860   -0.7210  -16.4290 C   0  0  0  0  0  0  0  0  0  0  0  0
   -4.0570   -1.7440  -16.8750 C   0  0  0  0  0  0  0  0  0  0  0  0
   -2.9800   -1.0400  -17.3530 C   0  0  0  0  0  0  0  0  0  0  0  0
   -8.2960   -3.1600  -16.7570 C   0  0  0  0  0  0  0  0  0  0  0  0
   -5.1780   -1.4990  -17.9100 C   0  0  0  0  0  0  0  0  0  0  0  0
   -6.3710   -3.2670  -15.5650 C   0  0  0  0  0  0  0  0  0  0  0  0
   -6.8410   -0.7760  -19.8840 N   0  0  0  0  0  0  0  0  0  0  0  0
   -4.6830   -0.8580  -19.0240 C   0  0  0  0  0  0  0  0  0  0  0  0
   -9.5160   -2.9330  -17.7650 S   0  0  0  0  0  0  0  0  0  0  0  0
   -2.9220   -0.6170  -18.9630 S   0  0  0  0  0  0  0  0  0  0  0  0
   -7.4170   -3.8470  -14.8490 N   0  0  0  0  0  0  0  0  0  0  0  0
   -3.9530   -2.3570  -15.4470 C   0  0  0  0  0  0  0  0  0  0  0  0
   -5.5650   -0.4450  -20.0120 C   0  0  0  0  0  0  0  0  0  0  0  0
   -6.4710   -1.8320  -17.8690 C   0  0  0  0  0  0  0  0  0  0  0  0
   -1.5030   -1.8710  -15.5850 C   0  0  0  0  0  0  0  0  0  0  0  0
   -6.9450   -2.7300  -16.7920 C   0  0  0  0  0  0  0  0  0  0  0  0
   -8.6250   -3.8160  -15.5450 N   0  0  0  0  0  0  0  0  0  0  0  0
   -7.3100   -1.5140  -18.8200 N   0  0  0  0  0  0  0  0  0  0  0  0
   -2.5950   -2.7980  -15.2830 C   0  0  0  0  0  0  0  0  0  0  0  0
  1 15  1  0
  2 12  1  0
  3  2  1  0
  3  1  1  0
  4 17  1  0
  5 14  4  0
  5  2  1  0
  6 11  2  0
  7 18  4  0
  8 10  1  0
  8  5  4  0
  9  4  2  0
 10  3  1  0
 12 19  1  0
 13  7  4  0
 13  8  4  0
 15 19  1  0
 16 14  1  0
 16  4  1  0
 16  6  1  0
 17 11  1  0
 18 14  4  0
M  END
$$$$

     RDKit          3D

 19 22  0  0  0  0  0  0  0  0999 V2000
   -1.2600   -0.6520  -16.7770 C   0  0  0  0  0  0  0  0  0  0  0  0
   -3.4260   -1.7460  -16.8820 C   0  0  0  0  0  0  0  0  0  0  0  0
   -2.4180   -1.0630  -17.4450 C   0  0  0  0  0  0  0  0  0  0  0  0
   -7.8780   -3.0400  -16.4520 C   0  0  0  0  0  0  0  0  0  0  0  0
   -4.6000   -1.5950  -17.6560 C   0  0  0  0  0  0  0  0  0  0  0  0
   -5.9800   -3.3600  -15.4990 C   0  0  0  0  0  0  0  0  0  0  0  0
   -6.3310   -0.7690  -19.7140 C   0  0  0  0  0  0  0  0  0  0  0  0
   -4.1150   -0.8620  -18.7600 C   0  0  0  0  0  0  0  0  0  0  0  0
   -8.9590   -2.7940  -17.4300 C   0  0  0  0  0  0  0  0  0  0  0  0
   -2.8020   -0.6120  -18.6620 N   0  0  0  0  0  0  0  0  0  0  0  0
   -6.8880   -3.9590  -14.8250 N   0  0  0  0  0  0  0  0  0  0  0  0
   -3.1120   -2.3720  -15.6360 C   0  0  0  0  0  0  0  0  0  0  0  0
   -5.0020   -0.4930  -19.7730 C   0  0  0  0  0  0  0  0  0  0  0  0
   -5.9320   -1.9440  -17.6390 C   0  0  0  0  0  0  0  0  0  0  0  0
   -1.0050   -1.3320  -15.5720 C   0  0  0  0  0  0  0  0  0  0  0  0
   -6.5760   -2.7380  -16.5420 C   0  0  0  0  0  0  0  0  0  0  0  0
   -8.1010   -3.7950  -15.3270 N   0  0  0  0  0  0  0  0  0  0  0  0
   -6.7620   -1.5170  -18.6420 C   0  0  0  0  0  0  0  0  0  0  0  0
   -1.9460   -2.1960  -15.0230 C   0  0  0  0  0  0  0  0  0  0  0  0
  1 15  1  0
  2 12  1  0
  3  2  1  0
  3  1  2  0
  4 17  4  0
  5 14  4  0
  5  2  2  0
  6 11  4  0
  7 18  4  0
  8 10  2  0
  8  5  4  0
  9  4  1  0
 10  3  1  0
 12 19  2  0
 13  7  4  0
 13  8  4  0
 14 16  1  0
 15 19  1  0
 16  4  4  0
 16  6  4  0
 17 11  4  0
 18 14  4  0
M  END
$$$$

     RDKit          3D

 19 22  0  0  0  0  0  0  0  0999 V2000
   -1.4650   -0.9120  -16.5790 C   0  0  0  0  0  0  0  0  0  0  0  0
   -3.6300   -1.8830  -16.7470 C   0  0  0  0  0  0  0  0  0  0  0  0
   -2.6100   -1.1510  -17.2060 C   0  0  0  0  0  0  0  0  0  0  0  0
   -8.0480   -3.1910  -16.3790 N   0  0  0  0  0  0  0  0  0  0  0  0
   -4.7940   -1.7510  -17.6560 C   0  0  0  0  0  0  0  0  0  0  0  0
   -6.2030   -3.3900  -15.4610 C   0  0  0  0  0  0  0  0  0  0  0  0
   -6.4160   -0.8150  -19.6520 C   0  0  0  0  0  0  0  0  0  0  0  0
   -4.3930   -0.9230  -18.6850 C   0  0  0  0  0  0  0  0  0  0  0  0
   -9.1120   -3.0550  -17.1380 C   0  0  0  0  0  0  0  0  0  0  0  0
   -2.9980   -0.6440  -18.4290 N   0  0  0  0  0  0  0  0  0  0  0  0
   -7.0500   -4.0650  -14.8420 N   0  0  0  0  0  0  0  0  0  0  0  0
   -3.3510   -2.6680  -15.6110 C   0  0  0  0  0  0  0  0  0  0  0  0
   -5.1400   -0.5630  -19.6410 N   0  0  0  0  0  0  0  0  0  0  0  0
   -6.2050   -1.9880  -17.6050 C   0  0  0  0  0  0  0  0  0  0  0  0
   -1.2430   -1.6830  -15.4590 C   0  0  0  0  0  0  0  0  0  0  0  0
   -6.7880   -2.7070  -16.6380 C   0  0  0  0  0  0  0  0  0  0  0  0
   -8.1310   -3.9840  -15.4150 N   0  0  0  0  0  0  0  0  0  0  0  0
   -7.0070   -1.4700  -18.6410 N   0  0  0  0  0  0  0  0  0  0  0  0
   -2.2150   -2.5200  -14.9460 C   0  0  0  0  0  0  0  0  0  0  0  0
  1 15  4  0
  2 12  4  0
  3  2  4  0
  3  1  4  0
  4 17  4  0
  5  8  1  0
  5 14  1  0
  5  2  1  0
  6 11  4  0
  7 13  2  0
  7 18  1  0
  8 10  2  0
  9  4  1  0
 10  3  1  0
 12 19  4  0
 13  8  1  0
 14 16  1  0
 15 19  4  0
 16  4  4  0
 16  6  4  0
 17 11  4  0
 18 14  2  0
M  END
$$$$

     RDKit          3D

 19 22  0  0  0  0  0  0  0  0999 V2000
   -1.5240   -0.7700  -16.9930 C   0  0  0  0  0  0  0  0  0  0  0  0
   -3.7760   -1.6990  -16.9210 C   0  0  0  0  0  0  0  0  0  0  0  0
   -2.8170   -0.9550  -17.5990 C   0  0  0  0  0  0  0  0  0  0  0  0
   -8.2760   -2.9700  -16.4800 C   0  0  0  0  0  0  0  0  0  0  0  0
   -5.0130   -1.5290  -17.7780 C   0  0  0  0  0  0  0  0  0  0  0  0
   -6.2980   -3.0820  -15.5620 N   0  0  0  0  0  0  0  0  0  0  0  0
   -6.6650   -0.8970  -19.8460 C   0  0  0  0  0  0  0  0  0  0  0  0
   -4.5940   -0.9100  -18.8740 C   0  0  0  0  0  0  0  0  0  0  0  0
   -9.4540   -2.6060  -17.2970 C   0  0  0  0  0  0  0  0  0  0  0  0
   -3.2850   -0.6640  -18.7550 N   0  0  0  0  0  0  0  0  0  0  0  0
   -7.1000   -3.8340  -14.8710 N   0  0  0  0  0  0  0  0  0  0  0  0
   -3.4260   -2.4400  -15.8650 C   0  0  0  0  0  0  0  0  0  0  0  0
   -5.3420   -0.6290  -19.8710 C   0  0  0  0  0  0  0  0  0  0  0  0
   -6.3290   -1.8370  -17.6770 C   0  0  0  0  0  0  0  0  0  0  0  0
   -1.2480   -1.4580  -15.8990 C   0  0  0  0  0  0  0  0  0  0  0  0
   -6.8770   -2.5320  -16.6150 C   0  0  0  0  0  0  0  0  0  0  0  0
   -8.2840   -3.7960  -15.4890 N   0  0  0  0  0  0  0  0  0  0  0  0
   -7.0410   -1.3310  -18.6880 C   0  0  0  0  0  0  0  0  0  0  0  0
   -2.1950   -2.3670  -15.3320 C   0  0  0  0  0  0  0  0  0  0  0  0
  1 15  4  0
  2 12  4  0
  3  1  4  0
  3  2  4  0
  4 17  4  0
  5 14  4  0
  5  2  4  0
  6 11  4  0
  7 18  4  0
  8 10  4  0
  8  5  4  0
  9  4  1  0
 10  3  4  0
 12 19  4  0
 13  7  4  0
 13  8  4  0
 14 16  1  0
 15 19  4  0
 16  4  4  0
 16  6  4  0
 17 11  4  0
 18 14  4  0
M  END
$$$$

     RDKit          3D

 19 22  0  0  0  0  0  0  0  0999 V2000
   -1.2600   -1.1000  -17.4290 C   0  0  0  0  0  0  0  0  0  0  0  0
   -3.6270   -1.6630  -17.1490 C   0  0  0  0  0  0  0  0  0  0  0  0
   -2.5890   -1.1070  -17.8740 C   0  0  0  0  0  0  0  0  0  0  0  0
   -8.1930   -2.7370  -16.1980 C   0  0  0  0  0  0  0  0  0  0  0  0
   -4.8980   -1.5370  -17.9820 C   0  0  0  0  0  0  0  0  0  0  0  0
   -6.0810   -2.9570  -15.6910 N   0  0  0  0  0  0  0  0  0  0  0  0
   -6.7890   -0.6990  -19.9560 C   0  0  0  0  0  0  0  0  0  0  0  0
   -4.5100   -0.8200  -19.1450 C   0  0  0  0  0  0  0  0  0  0  0  0
   -9.4830   -2.2190  -16.7770 C   0  0  0  0  0  0  0  0  0  0  0  0
   -3.1810   -0.5980  -19.0210 N   0  0  0  0  0  0  0  0  0  0  0  0
   -6.8310   -3.5970  -14.8350 N   0  0  0  0  0  0  0  0  0  0  0  0
   -3.3770   -2.2340  -15.9630 C   0  0  0  0  0  0  0  0  0  0  0  0
   -5.4120   -0.4160  -20.1080 C   0  0  0  0  0  0  0  0  0  0  0  0
   -6.3870   -1.7870  -17.8060 C   0  0  0  0  0  0  0  0  0  0  0  0
   -1.0800   -1.6740  -16.2490 C   0  0  0  0  0  0  0  0  0  0  0  0
   -6.8660   -2.4560  -16.6190 C   0  0  0  0  0  0  0  0  0  0  0  0
   -8.1440   -3.4700  -15.0810 N   0  0  0  0  0  0  0  0  0  0  0  0
   -7.2240   -1.3560  -18.8260 C   0  0  0  0  0  0  0  0  0  0  0  0
   -2.0300   -2.2560  -15.4870 C   0  0  0  0  0  0  0  0  0  0  0  0
  1 15  1  0
  2 12  1  0
  3  1  2  0
  3  2  1  0
  4 17  4  0
  5 14  4  0
  5  2  2  0
  6 11  4  0
  7 18  4  0
  8 10  2  0
  8  5  4  0
  9  4  1  0
 10  3  1  0
 12 19  2  0
 13  7  4  0
 13  8  4  0
 14 16  1  0
 15 19  1  0
 16  4  4  0
 16  6  4  0
 17 11  4  0
 18 14  4  0
M  END
$$$$

     RDKit          3D

 19 22  0  0  0  0  0  0  0  0999 V2000
   -1.7370   -1.1960  -16.7270 C   0  0  0  0  0  0  0  0  0  0  0  0
   -3.9520   -2.0520  -16.9090 C   0  0  0  0  0  0  0  0  0  0  0  0
   -2.8390   -1.5610  -17.3580 C   0  0  0  0  0  0  0  0  0  0  0  0
   -8.4330   -2.7960  -16.5180 C   0  0  0  0  0  0  0  0  0  0  0  0
   -5.0360   -1.7070  -17.7950 N   0  0  0  0  0  0  0  0  0  0  0  0
   -6.4770   -2.8090  -15.4040 N   0  0  0  0  0  0  0  0  0  0  0  0
   -6.6140   -0.7530  -19.9040 C   0  0  0  0  0  0  0  0  0  0  0  0
   -4.4410   -1.0900  -18.8750 C   0  0  0  0  0  0  0  0  0  0  0  0
   -9.4930   -2.8440  -17.3590 C   0  0  0  0  0  0  0  0  0  0  0  0
   -3.1280   -0.9890  -18.6810 N   0  0  0  0  0  0  0  0  0  0  0  0
   -7.4640   -3.3520  -14.7550 O   0  0  0  0  0  0  0  0  0  0  0  0
   -3.7580   -2.7250  -15.6060 C   0  0  0  0  0  0  0  0  0  0  0  0
   -5.2450   -0.5300  -19.9250 C   0  0  0  0  0  0  0  0  0  0  0  0
   -6.4660   -1.8510  -17.7400 C   0  0  0  0  0  0  0  0  0  0  0  0
   -1.5180   -1.7290  -15.5470 C   0  0  0  0  0  0  0  0  0  0  0  0
   -7.1120   -2.4450  -16.6580 C   0  0  0  0  0  0  0  0  0  0  0  0
   -8.6990   -3.3080  -15.3130 N   0  0  0  0  0  0  0  0  0  0  0  0
   -7.1540   -1.3710  -18.7560 C   0  0  0  0  0  0  0  0  0  0  0  0
   -2.5440   -2.5690  -14.9680 C   0  0  0  0  0  0  0  0  0  0  0  0
  1 15  4  0
  2 12  4  0
  3  2  4  0
  3  1  4  0
  4 17  4  0
  5 14  4  0
  5  2  4  0
  6 11  4  0
  7 18  4  0
  8 10  4  0
  8  5  4  0
  9  4  1  0
 10  3  4  0
 12 19  4  0
 13  7  4  0
 13  8  4  0
 14 16  1  0
 15 19  4  0
 16  4  4  0
 16  6  4  0
 17 11  4  0
 18 14  4  0
M  END
$$$$

     RDKit          3D

 19 22  0  0  0  0  0  0  0  0999 V2000
   -1.3050   -1.2580  -17.5820 C   0  0  0  0  0  0  0  0  0  0  0  0
   -3.7030   -1.6640  -17.2190 C   0  0  0  0  0  0  0  0  0  0  0  0
   -2.6240   -1.3100  -18.0110 C   0  0  0  0  0  0  0  0  0  0  0  0
   -8.2910   -2.6830  -16.2580 C   0  0  0  0  0  0  0  0  0  0  0  0
   -4.9010   -1.5750  -17.9610 C   0  0  0  0  0  0  0  0  0  0  0  0
   -6.3300   -3.1790  -15.5670 N   0  0  0  0  0  0  0  0  0  0  0  0
   -6.8010   -1.0270  -19.8090 C   0  0  0  0  0  0  0  0  0  0  0  0
   -4.5350   -1.0040  -19.1150 C   0  0  0  0  0  0  0  0  0  0  0  0
   -9.3990   -2.2610  -17.0150 N   0  0  0  0  0  0  0  0  0  0  0  0
   -3.2010   -0.9140  -19.1900 N   0  0  0  0  0  0  0  0  0  0  0  0
   -7.1800   -3.7270  -14.6930 O   0  0  0  0  0  0  0  0  0  0  0  0
   -3.4020   -2.0280  -15.7770 C   0  0  0  0  0  0  0  0  0  0  0  0
   -5.4630   -0.7530  -20.1140 C   0  0  0  0  0  0  0  0  0  0  0  0
   -6.2680   -1.8830  -17.7190 C   0  0  0  0  0  0  0  0  0  0  0  0
   -1.0030   -1.5900  -16.2520 C   0  0  0  0  0  0  0  0  0  0  0  0
   -6.9480   -2.6150  -16.5380 C   0  0  0  0  0  0  0  0  0  0  0  0
   -8.4950   -3.4270  -15.1950 N   0  0  0  0  0  0  0  0  0  0  0  0
   -7.1740   -1.5610  -18.6950 N   0  0  0  0  0  0  0  0  0  0  0  0
   -2.0730   -1.8650  -15.4290 C   0  0  0  0  0  0  0  0  0  0  0  0
  1 15  1  0
  2 12  1  0
  3  1  2  0
  3  2  1  0
  4 17  4  0
  5 14  4  0
  5  2  2  0
  6 11  4  0
  7 18  4  0
  8  5  4  0
  9  4  1  0
 10  8  2  0
 10  3  1  0
 12 19  2  0
 13  7  4  0
 13  8  4  0
 14 16  1  0
 15 19  1  0
 16  4  4  0
 16  6  4  0
 17 11  4  0
 18 14  4  0
M  END
$$$$

     RDKit          3D

 19 22  0  0  0  0  0  0  0  0999 V2000
   -1.6700   -0.7650  -16.7360 C   0  0  0  0  0  0  0  0  0  0  0  0
   -3.8770   -1.8600  -17.0320 C   0  0  0  0  0  0  0  0  0  0  0  0
   -2.8080   -1.0530  -17.4700 C   0  0  0  0  0  0  0  0  0  0  0  0
   -8.5200   -2.8690  -16.3960 C   0  0  0  0  0  0  0  0  0  0  0  0
   -5.0570   -1.6920  -17.8950 C   0  0  0  0  0  0  0  0  0  0  0  0
   -6.5040   -2.9310  -15.6340 C   0  0  0  0  0  0  0  0  0  0  0  0
   -6.9340   -0.9910  -19.9210 N   0  0  0  0  0  0  0  0  0  0  0  0
   -4.6130   -1.0020  -19.0850 C   0  0  0  0  0  0  0  0  0  0  0  0
   -9.8840   -2.6160  -17.0350 C   0  0  0  0  0  0  0  0  0  0  0  0
   -2.9650   -0.5610  -19.1060 S   0  0  0  0  0  0  0  0  0  0  0  0
   -7.3680   -3.6200  -14.8430 N   0  0  0  0  0  0  0  0  0  0  0  0
   -3.6390   -2.6380  -15.9450 C   0  0  0  0  0  0  0  0  0  0  0  0
   -5.5860   -0.6180  -19.9950 C   0  0  0  0  0  0  0  0  0  0  0  0
   -6.4500   -1.9030  -17.8560 C   0  0  0  0  0  0  0  0  0  0  0  0
   -1.4530   -1.5380  -15.6260 C   0  0  0  0  0  0  0  0  0  0  0  0
   -7.1960   -2.5300  -16.7170 C   0  0  0  0  0  0  0  0  0  0  0  0
   -8.5690   -3.5880  -15.2710 N   0  0  0  0  0  0  0  0  0  0  0  0
   -7.3190   -1.5840  -18.8660 N   0  0  0  0  0  0  0  0  0  0  0  0
   -2.4310   -2.5060  -15.2210 C   0  0  0  0  0  0  0  0  0  0  0  0
  1 15  4  0
  2 12  4  0
  3  2  4  0
  3  1  4  0
  4 17  4  0
  5 14  4  0
  5  2  4  0
  6 11  4  0
  7 18  4  0
  8  5  4  0
  9  4  1  0
 10  8  4  0
 10  3  4  0
 12 19  4  0
 13  7  4  0
 13  8  4  0
 14 16  1  0
 15 19  4  0
 16  4  4  0
 16  6  4  0
 17 11  4  0
 18 14  4  0
M  END
$$$$

     RDKit          3D

 19 22  0  0  0  0  0  0  0  0999 V2000
   -1.7270   -0.8470  -16.4650 C   0  0  0  0  0  0  0  0  0  0  0  0
   -3.9430   -1.8300  -16.8540 N   0  0  0  0  0  0  0  0  0  0  0  0
   -2.6300   -1.4330  -17.4710 C   0  0  0  0  0  0  0  0  0  0  0  0
   -8.3870   -2.9470  -16.4860 C   0  0  0  0  0  0  0  0  0  0  0  0
   -4.9900   -1.6180  -17.8370 C   0  0  0  0  0  0  0  0  0  0  0  0
   -6.4720   -3.2730  -15.4540 C   0  0  0  0  0  0  0  0  0  0  0  0
   -6.6970   -0.8890  -20.0180 N   0  0  0  0  0  0  0  0  0  0  0  0
   -4.5120   -0.9770  -18.9950 C   0  0  0  0  0  0  0  0  0  0  0  0
   -9.4570   -2.6930  -17.4120 C   0  0  0  0  0  0  0  0  0  0  0  0
   -2.7990   -0.6550  -18.9800 S   0  0  0  0  0  0  0  0  0  0  0  0
   -7.4170   -3.9020  -14.7110 C   0  0  0  0  0  0  0  0  0  0  0  0
   -3.8100   -2.4030  -15.4220 C   0  0  0  0  0  0  0  0  0  0  0  0
   -5.3650   -0.6940  -20.0790 C   0  0  0  0  0  0  0  0  0  0  0  0
   -6.4280   -1.9100  -17.7410 C   0  0  0  0  0  0  0  0  0  0  0  0
   -1.3650   -1.7200  -15.2900 C   0  0  0  0  0  0  0  0  0  0  0  0
   -7.0670   -2.6590  -16.6060 N   0  0  0  0  0  0  0  0  0  0  0  0
   -8.6220   -3.6020  -15.2710 N   0  0  0  0  0  0  0  0  0  0  0  0
   -7.2450   -1.5310  -18.9010 C   0  0  0  0  0  0  0  0  0  0  0  0
   -2.3540   -2.8460  -15.1020 C   0  0  0  0  0  0  0  0  0  0  0  0
  1 15  1  0
  2 12  1  0
  3  2  1  0
  3  1  1  0
  4 17  4  0
  5 14  4  0
  5  2  1  0
  6 11  4  0
  7 18  4  0
  8 10  1  0
  8  5  4  0
  9  4  1  0
 10  3  1  0
 12 19  1  0
 13  7  4  0
 13  8  4  0
 14 16  1  0
 15 19  1  0
 16  4  4  0
 16  6  4  0
 17 11  4  0
 18 14  4  0
M  END
$$$$

     RDKit          3D

 19 22  0  0  0  0  0  0  0  0999 V2000
   -1.2110   -0.6120  -16.7300 C   0  0  0  0  0  0  0  0  0  0  0  0
   -3.4340   -1.7240  -16.7920 C   0  0  0  0  0  0  0  0  0  0  0  0
   -2.3810   -0.9330  -17.3760 C   0  0  0  0  0  0  0  0  0  0  0  0
   -7.9780   -3.1810  -16.4700 C   0  0  0  0  0  0  0  0  0  0  0  0
   -4.6800   -1.6270  -17.5920 C   0  0  0  0  0  0  0  0  0  0  0  0
   -6.0150   -3.3640  -15.4270 C   0  0  0  0  0  0  0  0  0  0  0  0
   -6.3870   -0.8060  -19.5660 N   0  0  0  0  0  0  0  0  0  0  0  0
   -4.1240   -0.9160  -18.6730 C   0  0  0  0  0  0  0  0  0  0  0  0
   -9.1460   -3.0460  -17.4060 C   0  0  0  0  0  0  0  0  0  0  0  0
   -2.8740   -0.5350  -18.5020 N   0  0  0  0  0  0  0  0  0  0  0  0
   -7.0250   -4.0030  -14.6780 N   0  0  0  0  0  0  0  0  0  0  0  0
   -3.0820   -2.4630  -15.5970 C   0  0  0  0  0  0  0  0  0  0  0  0
   -5.1020   -0.5740  -19.6600 C   0  0  0  0  0  0  0  0  0  0  0  0
   -6.0540   -1.9320  -17.5320 C   0  0  0  0  0  0  0  0  0  0  0  0
   -0.9590   -1.3290  -15.4880 C   0  0  0  0  0  0  0  0  0  0  0  0
   -6.6280   -2.7800  -16.5310 C   0  0  0  0  0  0  0  0  0  0  0  0
   -8.0770   -3.8530  -15.3480 N   0  0  0  0  0  0  0  0  0  0  0  0
   -6.8680   -1.4770  -18.5140 N   0  0  0  0  0  0  0  0  0  0  0  0
   -1.9170   -2.2200  -15.0640 C   0  0  0  0  0  0  0  0  0  0  0  0
  1 15  1  0
  2 12  1  0
  3  2  1  0
  3  1  2  0
  4 17  4  0
  5 14  4  0
  5  2  2  0
  6 11  4  0
  7 18  4  0
  8 10  2  0
  8  5  4  0
  9  4  1  0
 10  3  1  0
 12 19  2  0
 13  7  4  0
 13  8  4  0
 14 16  1  0
 15 19  1  0
 16  4  4  0
 16  6  4  0
 17 11  4  0
 18 14  4  0
M  END
$$$$

     RDKit          3D

 19 22  0  0  0  0  0  0  0  0999 V2000
   -1.2490   -0.8120  -16.7150 C   0  0  0  0  0  0  0  0  0  0  0  0
   -3.5090   -1.9160  -16.7030 C   0  0  0  0  0  0  0  0  0  0  0  0
   -2.4900   -1.1290  -17.3380 C   0  0  0  0  0  0  0  0  0  0  0  0
   -8.2180   -3.1740  -16.4370 C   0  0  0  0  0  0  0  0  0  0  0  0
   -4.7360   -1.7640  -17.6150 C   0  0  0  0  0  0  0  0  0  0  0  0
   -6.3600   -3.1990  -15.3650 C   0  0  0  0  0  0  0  0  0  0  0  0
   -6.3840   -0.8790  -19.7090 C   0  0  0  0  0  0  0  0  0  0  0  0
   -4.2050   -0.9760  -18.8070 C   0  0  0  0  0  0  0  0  0  0  0  0
   -9.3160   -3.0030  -17.4480 C   0  0  0  0  0  0  0  0  0  0  0  0
   -2.8540   -0.7410  -18.6350 N   0  0  0  0  0  0  0  0  0  0  0  0
   -7.2590   -3.8140  -14.6940 N   0  0  0  0  0  0  0  0  0  0  0  0
   -3.2720   -2.4460  -15.5090 C   0  0  0  0  0  0  0  0  0  0  0  0
   -5.0890   -0.5960  -19.7700 N   0  0  0  0  0  0  0  0  0  0  0  0
   -6.1560   -2.0320  -17.6130 C   0  0  0  0  0  0  0  0  0  0  0  0
   -1.0860   -1.3420  -15.3960 C   0  0  0  0  0  0  0  0  0  0  0  0
   -6.8540   -2.7040  -16.5530 C   0  0  0  0  0  0  0  0  0  0  0  0
   -8.3680   -3.8810  -15.3270 N   0  0  0  0  0  0  0  0  0  0  0  0
   -6.8620   -1.5670  -18.6900 N   0  0  0  0  0  0  0  0  0  0  0  0
   -2.1100   -2.1510  -14.8500 C   0  0  0  0  0  0  0  0  0  0  0  0
  1 15  4  0
  2 12  4  0
  3  1  4  0
  3  2  4  0
  4 17  4  0
  5 14  4  0
  5  2  4  0
  6 11  4  0
  7 18  4  0
  8 10  4  0
  8  5  1  0
  9  4  1  0
 10  3  4  0
 12 19  4  0
 13  7  4  0
 13  8  4  0
 14 16  1  0
 15 19  4  0
 16  4  4  0
 16  6  4  0
 17 11  4  0
 18 14  4  0
M  END
$$$$

     RDKit          3D

 19 22  0  0  0  0  0  0  0  0999 V2000
   -1.4250   -0.7760  -16.9890 C   0  0  0  0  0  0  0  0  0  0  0  0
   -3.6850   -1.7490  -16.9300 C   0  0  0  0  0  0  0  0  0  0  0  0
   -2.6600   -1.0520  -17.5660 C   0  0  0  0  0  0  0  0  0  0  0  0
   -8.2150   -2.7840  -16.5360 C   0  0  0  0  0  0  0  0  0  0  0  0
   -4.8410   -1.6520  -17.7460 C   0  0  0  0  0  0  0  0  0  0  0  0
   -6.1250   -3.1340  -15.7110 N   0  0  0  0  0  0  0  0  0  0  0  0
   -6.4910   -0.9220  -19.8340 C   0  0  0  0  0  0  0  0  0  0  0  0
   -4.4260   -0.9230  -18.8200 C   0  0  0  0  0  0  0  0  0  0  0  0
   -9.2580   -2.4190  -17.2490 O   0  0  0  0  0  0  0  0  0  0  0  0
   -3.2130   -0.6680  -18.7000 N   0  0  0  0  0  0  0  0  0  0  0  0
   -7.0190   -3.8390  -15.0980 C   0  0  0  0  0  0  0  0  0  0  0  0
   -3.3560   -2.4660  -15.7430 C   0  0  0  0  0  0  0  0  0  0  0  0
   -5.2050   -0.5850  -19.8890 C   0  0  0  0  0  0  0  0  0  0  0  0
   -6.1940   -1.9540  -17.7120 C   0  0  0  0  0  0  0  0  0  0  0  0
   -1.1200   -1.4180  -15.8260 C   0  0  0  0  0  0  0  0  0  0  0  0
   -6.8750   -2.5900  -16.7200 N   0  0  0  0  0  0  0  0  0  0  0  0
   -8.3370   -3.6070  -15.5500 N   0  0  0  0  0  0  0  0  0  0  0  0
   -7.0020   -1.5660  -18.7800 C   0  0  0  0  0  0  0  0  0  0  0  0
   -2.1210   -2.2040  -15.1990 C   0  0  0  0  0  0  0  0  0  0  0  0
  1 15  1  0
  2 12  1  0
  3  1  2  0
  3  2  1  0
  4 17  4  0
  5 14  4  0
  5  2  2  0
  6 11  4  0
  7 18  4  0
  8 10  2  0
  8  5  4  0
  9  4  2  0
 10  3  1  0
 12 19  2  0
 13  7  4  0
 13  8  4  0
 14 16  1  0
 15 19  1  0
 16  4  4  0
 16  6  4  0
 17 11  4  0
 18 14  4  0
M  END
$$$$

     RDKit          3D

 19 22  0  0  0  0  0  0  0  0999 V2000
   -1.4230   -1.2260  -17.4010 C   0  0  0  0  0  0  0  0  0  0  0  0
   -3.8150   -1.7930  -17.1820 C   0  0  0  0  0  0  0  0  0  0  0  0
   -2.7690   -1.2010  -17.8050 C   0  0  0  0  0  0  0  0  0  0  0  0
   -8.2410   -2.7720  -16.4020 C   0  0  0  0  0  0  0  0  0  0  0  0
   -4.9380   -1.5880  -17.8750 N   0  0  0  0  0  0  0  0  0  0  0  0
   -6.2020   -3.0780  -15.5920 C   0  0  0  0  0  0  0  0  0  0  0  0
   -6.7340   -0.8750  -19.7790 N   0  0  0  0  0  0  0  0  0  0  0  0
   -4.5470   -0.9240  -19.0190 C   0  0  0  0  0  0  0  0  0  0  0  0
   -9.4260   -2.3120  -17.1430 C   0  0  0  0  0  0  0  0  0  0  0  0
   -3.2180   -0.6890  -19.0390 N   0  0  0  0  0  0  0  0  0  0  0  0
   -7.0970   -3.8100  -14.8410 C   0  0  0  0  0  0  0  0  0  0  0  0
   -3.4620   -2.4720  -16.0600 C   0  0  0  0  0  0  0  0  0  0  0  0
   -5.4180   -0.6140  -19.9300 C   0  0  0  0  0  0  0  0  0  0  0  0
   -6.3140   -1.8240  -17.7150 C   0  0  0  0  0  0  0  0  0  0  0  0
   -1.1440   -1.7970  -16.2100 C   0  0  0  0  0  0  0  0  0  0  0  0
   -6.9000   -2.4830  -16.6260 C   0  0  0  0  0  0  0  0  0  0  0  0
   -8.3630   -3.6000  -15.3330 N   0  0  0  0  0  0  0  0  0  0  0  0
   -7.1330   -1.4220  -18.7150 C   0  0  0  0  0  0  0  0  0  0  0  0
   -2.1840   -2.4230  -15.5110 C   0  0  0  0  0  0  0  0  0  0  0  0
  1 15  4  0
  2 12  4  0
  3  1  4  0
  3  2  4  0
  4 17  4  0
  5 14  4  0
  5  2  4  0
  6 11  4  0
  7 18  4  0
  8  5  4  0
  9  4  1  0
 10  8  4  0
 10  3  4  0
 12 19  4  0
 13  7  4  0
 13  8  4  0
 14 16  1  0
 15 19  4  0
 16  4  4  0
 16  6  4  0
 17 11  4  0
 18 14  4  0
M  END
$$$$

     RDKit          3D

 19 22  0  0  0  0  0  0  0  0999 V2000
   -1.6620   -1.0250  -16.9560 C   0  0  0  0  0  0  0  0  0  0  0  0
   -3.9870   -1.8580  -16.9670 C   0  0  0  0  0  0  0  0  0  0  0  0
   -2.8580   -1.2760  -17.5710 C   0  0  0  0  0  0  0  0  0  0  0  0
   -8.5990   -2.7830  -16.5640 C   0  0  0  0  0  0  0  0  0  0  0  0
   -5.0770   -1.6620  -17.8060 C   0  0  0  0  0  0  0  0  0  0  0  0
   -6.6490   -2.8790  -15.5630 N   0  0  0  0  0  0  0  0  0  0  0  0
   -6.7140   -0.7550  -19.8560 C   0  0  0  0  0  0  0  0  0  0  0  0
   -4.5240   -1.0390  -18.9550 C   0  0  0  0  0  0  0  0  0  0  0  0
   -9.6510   -2.6270  -17.5540 C   0  0  0  0  0  0  0  0  0  0  0  0
   -3.1230   -0.9990  -18.7750 N   0  0  0  0  0  0  0  0  0  0  0  0
   -7.5750   -3.3090  -14.7720 N   0  0  0  0  0  0  0  0  0  0  0  0
   -3.8240   -2.3980  -15.6940 C   0  0  0  0  0  0  0  0  0  0  0  0
   -5.3770   -0.5980  -19.9710 C   0  0  0  0  0  0  0  0  0  0  0  0
   -6.5520   -1.7840  -17.7630 C   0  0  0  0  0  0  0  0  0  0  0  0
   -1.5450   -1.6830  -15.6250 C   0  0  0  0  0  0  0  0  0  0  0  0
   -7.2080   -2.4680  -16.7300 C   0  0  0  0  0  0  0  0  0  0  0  0
   -8.8610   -3.2600  -15.3190 N   0  0  0  0  0  0  0  0  0  0  0  0
   -7.2560   -1.3350  -18.8050 N   0  0  0  0  0  0  0  0  0  0  0  0
   -2.6140   -2.3080  -15.0930 C   0  0  0  0  0  0  0  0  0  0  0  0
  1 15  4  0
  2 12  4  0
  3  2  4  0
  3  1  4  0
  4 17  4  0
  5 14  4  0
  5  2  4  0
  6 11  4  0
  7 18  4  0
  8 10  4  0
  8  5  4  0
  9  4  1  0
 10  3  4  0
 12 19  4  0
 13  7  4  0
 13  8  4  0
 14 16  1  0
 15 19  4  0
 16  4  4  0
 16  6  4  0
 17 11  4  0
 18 14  4  0
M  END
$$$$

     RDKit          3D

 19 22  0  0  0  0  0  0  0  0999 V2000
   -1.2060   -1.2400  -17.5590 C   0  0  0  0  0  0  0  0  0  0  0  0
   -3.6840   -1.7070  -17.1860 C   0  0  0  0  0  0  0  0  0  0  0  0
   -2.6050   -1.1620  -18.0280 C   0  0  0  0  0  0  0  0  0  0  0  0
   -8.3210   -2.6140  -16.4250 C   0  0  0  0  0  0  0  0  0  0  0  0
   -4.8380   -1.5840  -17.9050 C   0  0  0  0  0  0  0  0  0  0  0  0
   -6.4070   -3.2340  -15.5870 C   0  0  0  0  0  0  0  0  0  0  0  0
   -6.6950   -0.8430  -19.9570 C   0  0  0  0  0  0  0  0  0  0  0  0
   -4.3770   -0.9940  -19.1750 C   0  0  0  0  0  0  0  0  0  0  0  0
   -9.3620   -2.1440  -17.0230 N   0  0  0  0  0  0  0  0  0  0  0  0
   -3.0640   -0.7790  -19.2080 N   0  0  0  0  0  0  0  0  0  0  0  0
   -7.3720   -3.8520  -14.9040 N   0  0  0  0  0  0  0  0  0  0  0  0
   -3.3670   -2.2280  -15.7160 C   0  0  0  0  0  0  0  0  0  0  0  0
   -5.2870   -0.6640  -20.1090 C   0  0  0  0  0  0  0  0  0  0  0  0
   -6.2080   -1.8060  -17.7510 C   0  0  0  0  0  0  0  0  0  0  0  0
   -0.9630   -1.8790  -16.2000 C   0  0  0  0  0  0  0  0  0  0  0  0
   -6.9290   -2.4830  -16.6560 C   0  0  0  0  0  0  0  0  0  0  0  0
   -8.5790   -3.4780  -15.4780 N   0  0  0  0  0  0  0  0  0  0  0  0
   -7.0720   -1.4920  -18.7360 N   0  0  0  0  0  0  0  0  0  0  0  0
   -2.0700   -1.9510  -15.1940 C   0  0  0  0  0  0  0  0  0  0  0  0
  1 15  1  0
  2 12  1  0
  3  1  2  0
  3  2  1  0
  4 17  4  0
  5 14  4  0
  5  2  2  0
  6 11  4  0
  7 18  4  0
  8  5  4  0
  9  4  1  0
 10  8  2  0
 10  3  1  0
 12 19  2  0
 13  7  4  0
 13  8  4  0
 14 16  1  0
 15 19  1  0
 16  4  4  0
 16  6  4  0
 17 11  4  0
 18 14  4  0
M  END
$$$$

     RDKit          3D

 19 22  0  0  0  0  0  0  0  0999 V2000
   -1.6760   -1.0870  -16.7770 C   0  0  0  0  0  0  0  0  0  0  0  0
   -3.9190   -1.9460  -17.2090 C   0  0  0  0  0  0  0  0  0  0  0  0
   -2.7850   -1.2520  -17.5920 C   0  0  0  0  0  0  0  0  0  0  0  0
   -8.4040   -2.8090  -16.3820 C   0  0  0  0  0  0  0  0  0  0  0  0
   -5.0880   -1.7050  -18.0420 C   0  0  0  0  0  0  0  0  0  0  0  0
   -6.3570   -3.2110  -15.5840 N   0  0  0  0  0  0  0  0  0  0  0  0
   -6.9510   -0.9580  -20.0220 C   0  0  0  0  0  0  0  0  0  0  0  0
   -4.7390   -0.9740  -19.2060 C   0  0  0  0  0  0  0  0  0  0  0  0
   -9.6010   -2.3880  -17.1380 C   0  0  0  0  0  0  0  0  0  0  0  0
   -3.0720   -0.5020  -19.1090 S   0  0  0  0  0  0  0  0  0  0  0  0
   -7.2500   -3.8950  -14.7630 N   0  0  0  0  0  0  0  0  0  0  0  0
   -3.5420   -3.1890  -16.5420 C   0  0  0  0  0  0  0  0  0  0  0  0
   -5.6300   -0.6060  -20.1470 N   0  0  0  0  0  0  0  0  0  0  0  0
   -6.4930   -2.0180  -17.8630 C   0  0  0  0  0  0  0  0  0  0  0  0
   -1.6330   -1.8000  -15.5820 C   0  0  0  0  0  0  0  0  0  0  0  0
   -7.0890   -2.6230  -16.7040 C   0  0  0  0  0  0  0  0  0  0  0  0
   -8.5010   -3.6100  -15.3130 N   0  0  0  0  0  0  0  0  0  0  0  0
   -7.4010   -1.6560  -18.9230 C   0  0  0  0  0  0  0  0  0  0  0  0
   -2.5670   -2.9060  -15.3840 C   0  0  0  0  0  0  0  0  0  0  0  0
  1 15  2  0
  2 12  1  0
  3  2  4  0
  3  1  1  0
  4 17  4  0
  5 14  4  0
  5  2  4  0
  6 11  4  0
  7 18  4  0
  8 10  4  0
  8  5  4  0
  9  4  1  0
 10  3  4  0
 12 19  1  0
 13  7  4  0
 13  8  4  0
 14 16  1  0
 15 19  1  0
 16  4  4  0
 16  6  4  0
 17 11  4  0
 18 14  4  0
M  END
$$$$

     RDKit          3D

 19 21  0  0  0  0  0  0  0  0999 V2000
   -1.7660   -0.9820  -16.3820 C   0  0  0  0  0  0  0  0  0  0  0  0
   -3.8180   -1.9090  -16.9920 N   0  0  0  0  0  0  0  0  0  0  0  0
   -2.4770   -1.8250  -17.4150 C   0  0  0  0  0  0  0  0  0  0  0  0
   -8.2830   -3.0400  -16.5370 C   0  0  0  0  0  0  0  0  0  0  0  0
   -4.7860   -1.5940  -17.8930 C   0  0  0  0  0  0  0  0  0  0  0  0
   -6.3020   -3.1770  -15.4750 C   0  0  0  0  0  0  0  0  0  0  0  0
   -6.6430   -0.9770  -19.9600 N   0  0  0  0  0  0  0  0  0  0  0  0
   -4.4350   -0.8270  -19.0430 C   0  0  0  0  0  0  0  0  0  0  0  0
   -9.6530   -2.6120  -17.5020 Cl  0  0  0  0  0  0  0  0  0  0  0  0
   -3.1040   -0.3590  -19.1940 N   0  0  0  0  0  0  0  0  0  0  0  0
   -7.2990   -3.7890  -14.8480 N   0  0  0  0  0  0  0  0  0  0  0  0
   -3.8850   -2.1270  -15.4910 C   0  0  0  0  0  0  0  0  0  0  0  0
   -5.3770   -0.5920  -20.0420 C   0  0  0  0  0  0  0  0  0  0  0  0
   -6.2200   -1.9520  -17.8040 C   0  0  0  0  0  0  0  0  0  0  0  0
   -1.3960   -1.9370  -15.2730 C   0  0  0  0  0  0  0  0  0  0  0  0
   -6.8970   -2.6540  -16.6670 C   0  0  0  0  0  0  0  0  0  0  0  0
   -8.5160   -3.6590  -15.3830 N   0  0  0  0  0  0  0  0  0  0  0  0
   -7.1290   -1.5700  -18.8520 C   0  0  0  0  0  0  0  0  0  0  0  0
   -2.5780   -2.8290  -14.9950 C   0  0  0  0  0  0  0  0  0  0  0  0
  1 15  1  0
  2 12  1  0
  3  2  1  0
  3  1  1  0
  4 17  4  0
  5 14  4  0
  5  2  1  0
  6 11  4  0
  7 18  4  0
  8  5  4  0
  9  4  1  0
 10  8  1  0
 12 19  1  0
 13  7  4  0
 13  8  4  0
 14 16  1  0
 15 19  1  0
 16  4  4  0
 16  6  4  0
 17 11  4  0
 18 14  4  0
M  END
$$$$

     RDKit          3D

 19 22  0  0  0  0  0  0  0  0999 V2000
   -1.1110   -1.0430  -16.7190 C   0  0  0  0  0  0  0  0  0  0  0  0
   -3.4200   -1.7660  -16.7140 C   0  0  0  0  0  0  0  0  0  0  0  0
   -2.3840   -1.1890  -17.3600 C   0  0  0  0  0  0  0  0  0  0  0  0
   -8.0380   -2.8880  -16.4750 C   0  0  0  0  0  0  0  0  0  0  0  0
   -4.5800   -1.5370  -17.5790 C   0  0  0  0  0  0  0  0  0  0  0  0
   -6.0980   -3.1200  -15.4090 C   0  0  0  0  0  0  0  0  0  0  0  0
   -6.2370   -0.7950  -19.6530 N   0  0  0  0  0  0  0  0  0  0  0  0
   -4.0670   -0.9150  -18.6730 C   0  0  0  0  0  0  0  0  0  0  0  0
   -9.1170   -2.5950  -17.2440 C   0  0  0  0  0  0  0  0  0  0  0  0
   -2.7930   -0.7270  -18.5260 N   0  0  0  0  0  0  0  0  0  0  0  0
   -7.0840   -3.7600  -14.8150 N   0  0  0  0  0  0  0  0  0  0  0  0
   -3.2660   -2.3670  -15.4760 C   0  0  0  0  0  0  0  0  0  0  0  0
   -4.9220   -0.5300  -19.7040 C   0  0  0  0  0  0  0  0  0  0  0  0
   -5.9610   -1.8500  -17.5600 C   0  0  0  0  0  0  0  0  0  0  0  0
   -0.9280   -1.6370  -15.5090 C   0  0  0  0  0  0  0  0  0  0  0  0
   -6.6680   -2.5670  -16.5420 C   0  0  0  0  0  0  0  0  0  0  0  0
   -8.1590   -3.5890  -15.3700 N   0  0  0  0  0  0  0  0  0  0  0  0
   -6.7610   -1.4410  -18.6000 N   0  0  0  0  0  0  0  0  0  0  0  0
   -1.9390   -2.2850  -14.9570 C   0  0  0  0  0  0  0  0  0  0  0  0
  1 15  1  0
  2 12  1  0
  3  1  2  0
  3  2  1  0
  4 17  4  0
  5 14  4  0
  5  2  2  0
  6 11  4  0
  7 18  4  0
  8 10  2  0
  8  5  4  0
  9  4  1  0
 10  3  1  0
 12 19  2  0
 13  7  4  0
 13  8  4  0
 14 16  1  0
 15 19  1  0
 16  4  4  0
 16  6  4  0
 17 11  4  0
 18 14  4  0
M  END
$$$$

     RDKit          3D

 19 22  0  0  0  0  0  0  0  0999 V2000
   -1.3740   -1.0330  -16.8790 C   0  0  0  0  0  0  0  0  0  0  0  0
   -3.7000   -1.7540  -16.8710 C   0  0  0  0  0  0  0  0  0  0  0  0
   -2.6170   -1.1520  -17.5050 C   0  0  0  0  0  0  0  0  0  0  0  0
   -8.2200   -3.2610  -16.5070 C   0  0  0  0  0  0  0  0  0  0  0  0
   -4.8290   -1.5990  -17.6510 C   0  0  0  0  0  0  0  0  0  0  0  0
   -6.2490   -3.2380  -15.3960 C   0  0  0  0  0  0  0  0  0  0  0  0
   -6.5120   -0.7480  -19.6680 C   0  0  0  0  0  0  0  0  0  0  0  0
   -4.3810   -0.9190  -18.8910 C   0  0  0  0  0  0  0  0  0  0  0  0
   -9.1280   -2.9600  -17.2810 O   0  0  0  0  0  0  0  0  0  0  0  0
   -2.9850   -0.7330  -18.7550 N   0  0  0  0  0  0  0  0  0  0  0  0
   -7.1510   -3.9960  -14.7040 N   0  0  0  0  0  0  0  0  0  0  0  0
   -3.4760   -2.3490  -15.5840 C   0  0  0  0  0  0  0  0  0  0  0  0
   -5.2330   -0.4780  -19.8380 C   0  0  0  0  0  0  0  0  0  0  0  0
   -6.1970   -1.9180  -17.6220 C   0  0  0  0  0  0  0  0  0  0  0  0
   -1.1990   -1.5360  -15.6650 C   0  0  0  0  0  0  0  0  0  0  0  0
   -6.8220   -2.7790  -16.5740 C   0  0  0  0  0  0  0  0  0  0  0  0
   -8.3690   -3.9790  -15.4050 N   0  0  0  0  0  0  0  0  0  0  0  0
   -6.9550   -1.4190  -18.5910 C   0  0  0  0  0  0  0  0  0  0  0  0
   -2.2410   -2.2230  -15.0050 C   0  0  0  0  0  0  0  0  0  0  0  0
  1 15  1  0
  2 12  1  0
  3  1  2  0
  3  2  1  0
  4 17  1  0
  5 14  4  0
  5  2  2  0
  6 11  2  0
  7 18  4  0
  8 10  2  0
  8  5  4  0
  9  4  2  0
 10  3  1  0
 12 19  2  0
 13  7  4  0
 13  8  4  0
 15 19  1  0
 16 14  1  0
 16  4  1  0
 16  6  1  0
 17 11  1  0
 18 14  4  0
M  END
$$$$

     RDKit          3D

 19 22  0  0  0  0  0  0  0  0999 V2000
   -1.4300   -0.9770  -17.1620 C   0  0  0  0  0  0  0  0  0  0  0  0
   -3.7000   -1.8610  -17.1260 C   0  0  0  0  0  0  0  0  0  0  0  0
   -2.6880   -1.1250  -17.7380 C   0  0  0  0  0  0  0  0  0  0  0  0
   -8.3830   -2.9370  -16.5400 C   0  0  0  0  0  0  0  0  0  0  0  0
   -4.9560   -1.6340  -17.9360 C   0  0  0  0  0  0  0  0  0  0  0  0
   -6.3890   -3.1360  -15.5950 O   0  0  0  0  0  0  0  0  0  0  0  0
   -6.6630   -0.9520  -20.0950 C   0  0  0  0  0  0  0  0  0  0  0  0
   -4.4430   -0.8870  -19.0490 C   0  0  0  0  0  0  0  0  0  0  0  0
   -9.5640   -2.4710  -17.2330 C   0  0  0  0  0  0  0  0  0  0  0  0
   -3.1080   -0.6200  -18.9710 N   0  0  0  0  0  0  0  0  0  0  0  0
   -7.2210   -3.8600  -14.9130 O   0  0  0  0  0  0  0  0  0  0  0  0
   -3.3140   -2.5650  -15.9410 C   0  0  0  0  0  0  0  0  0  0  0  0
   -5.2670   -0.5740  -20.1610 C   0  0  0  0  0  0  0  0  0  0  0  0
   -6.3310   -1.9280  -17.8040 C   0  0  0  0  0  0  0  0  0  0  0  0
   -1.0960   -1.6370  -15.9630 C   0  0  0  0  0  0  0  0  0  0  0  0
   -7.0330   -2.5910  -16.7190 C   0  0  0  0  0  0  0  0  0  0  0  0
   -8.4820   -3.8120  -15.5240 N   0  0  0  0  0  0  0  0  0  0  0  0
   -7.1700   -1.5830  -18.9270 C   0  0  0  0  0  0  0  0  0  0  0  0
   -2.1220   -2.4160  -15.3570 C   0  0  0  0  0  0  0  0  0  0  0  0
  1 15  1  0
  2 12  1  0
  3  1  2  0
  3  2  1  0
  4 17  2  0
  5 14  4  0
  5  2  2  0
  6 11  1  0
  7 18  4  0
  8 10  2  0
  8  5  4  0
  9  4  1  0
 10  3  1  0
 12 19  2  0
 13  7  4  0
 13  8  4  0
 15 19  1  0
 16 14  1  0
 16  4  1  0
 16  6  1  0
 17 11  1  0
 18 14  4  0
M  END
$$$$

     RDKit          3D

 19 22  0  0  0  0  0  0  0  0999 V2000
   -1.4530   -0.6910  -17.0890 C   0  0  0  0  0  0  0  0  0  0  0  0
   -3.7390   -1.6850  -17.0390 C   0  0  0  0  0  0  0  0  0  0  0  0
   -2.6810   -1.0600  -17.6420 C   0  0  0  0  0  0  0  0  0  0  0  0
   -8.3120   -2.7090  -16.3390 C   0  0  0  0  0  0  0  0  0  0  0  0
   -4.9800   -1.5240  -17.8520 C   0  0  0  0  0  0  0  0  0  0  0  0
   -6.2250   -3.2390  -15.7880 N   0  0  0  0  0  0  0  0  0  0  0  0
   -6.7020   -0.8130  -19.9430 C   0  0  0  0  0  0  0  0  0  0  0  0
   -4.4880   -0.9010  -19.0110 C   0  0  0  0  0  0  0  0  0  0  0  0
   -9.5460   -2.0960  -16.9180 C   0  0  0  0  0  0  0  0  0  0  0  0
   -3.1280   -0.6740  -18.8620 N   0  0  0  0  0  0  0  0  0  0  0  0
   -7.0510   -3.8290  -14.9790 C   0  0  0  0  0  0  0  0  0  0  0  0
   -3.3730   -2.4690  -15.9310 C   0  0  0  0  0  0  0  0  0  0  0  0
   -5.3470   -0.5340  -20.0780 C   0  0  0  0  0  0  0  0  0  0  0  0
   -6.4110   -1.8180  -17.7310 C   0  0  0  0  0  0  0  0  0  0  0  0
   -1.0550   -1.4710  -15.8900 C   0  0  0  0  0  0  0  0  0  0  0  0
   -6.9790   -2.5140  -16.6990 C   0  0  0  0  0  0  0  0  0  0  0  0
   -8.3400   -3.5880  -15.2920 N   0  0  0  0  0  0  0  0  0  0  0  0
   -7.2160   -1.4030  -18.7690 C   0  0  0  0  0  0  0  0  0  0  0  0
   -1.9700   -2.3860  -15.3290 C   0  0  0  0  0  0  0  0  0  0  0  0
  1 15  1  0
  2 12  1  0
  3  1  1  0
  3  2  1  0
  4 17  4  0
  5 14  4  0
  5  2  2  0
  6 11  4  0
  7 18  4  0
  8 10  2  0
  8  5  4  0
  9  4  1  0
 10  3  1  0
 12 19  2  0
 13  7  4  0
 13  8  4  0
 14 16  1  0
 15 19  1  0
 16  4  4  0
 16  6  4  0
 17 11  4  0
 18 14  4  0
M  END
$$$$

     RDKit          3D

 19 22  0  0  0  0  0  0  0  0999 V2000
   -1.5690   -1.1750  -16.7650 C   0  0  0  0  0  0  0  0  0  0  0  0
   -3.9360   -1.9680  -16.8810 C   0  0  0  0  0  0  0  0  0  0  0  0
   -2.7630   -1.6360  -17.5350 C   0  0  0  0  0  0  0  0  0  0  0  0
   -8.6790   -2.7070  -16.5010 C   0  0  0  0  0  0  0  0  0  0  0  0
   -5.0910   -1.6370  -17.8250 C   0  0  0  0  0  0  0  0  0  0  0  0
   -6.6890   -2.9510  -15.5080 N   0  0  0  0  0  0  0  0  0  0  0  0
   -6.7270   -0.7530  -19.9120 C   0  0  0  0  0  0  0  0  0  0  0  0
   -4.4900   -0.9550  -18.9460 C   0  0  0  0  0  0  0  0  0  0  0  0
   -9.5710   -2.4310  -17.3190 O   0  0  0  0  0  0  0  0  0  0  0  0
   -3.1680   -0.8960  -18.7100 N   0  0  0  0  0  0  0  0  0  0  0  0
   -7.6940   -3.3940  -14.7590 O   0  0  0  0  0  0  0  0  0  0  0  0
   -3.9220   -2.9150  -15.7310 C   0  0  0  0  0  0  0  0  0  0  0  0
   -5.3720   -0.4920  -19.9340 C   0  0  0  0  0  0  0  0  0  0  0  0
   -6.5450   -1.8560  -17.7950 C   0  0  0  0  0  0  0  0  0  0  0  0
   -1.4720   -1.9400  -15.4820 C   0  0  0  0  0  0  0  0  0  0  0  0
   -7.1670   -2.4670  -16.6320 C   0  0  0  0  0  0  0  0  0  0  0  0
   -8.9660   -3.3080  -15.2940 N   0  0  0  0  0  0  0  0  0  0  0  0
   -7.3110   -1.4500  -18.8770 C   0  0  0  0  0  0  0  0  0  0  0  0
   -2.6520   -2.6580  -14.8020 C   0  0  0  0  0  0  0  0  0  0  0  0
  1 15  1  0
  2 12  1  0
  3  2  1  0
  3  1  1  0
  4 17  4  0
  5 14  4  0
  5  2  2  0
  6 11  4  0
  7 18  4  0
  8 10  2  0
  8  5  4  0
  9  4  2  0
 10  3  1  0
 12 19  1  0
 13  7  4  0
 13  8  4  0
 14 16  1  0
 15 19  1  0
 16  4  4  0
 16  6  4  0
 17 11  4  0
 18 14  4  0
M  END
$$$$

     RDKit          3D

 19 22  0  0  0  0  0  0  0  0999 V2000
   -1.3090   -1.5790  -17.5810 C   0  0  0  0  0  0  0  0  0  0  0  0
   -3.6690   -1.8530  -17.1440 N   0  0  0  0  0  0  0  0  0  0  0  0
   -2.6290   -1.3560  -17.9610 C   0  0  0  0  0  0  0  0  0  0  0  0
   -8.2700   -2.6940  -16.2410 C   0  0  0  0  0  0  0  0  0  0  0  0
   -4.8740   -1.6460  -17.8650 C   0  0  0  0  0  0  0  0  0  0  0  0
   -6.2080   -3.2230  -15.3700 C   0  0  0  0  0  0  0  0  0  0  0  0
   -6.6930   -0.8490  -19.8100 C   0  0  0  0  0  0  0  0  0  0  0  0
   -4.4830   -0.9680  -19.0180 C   0  0  0  0  0  0  0  0  0  0  0  0
   -9.3730   -2.2780  -16.9750 N   0  0  0  0  0  0  0  0  0  0  0  0
   -3.1660   -0.8620  -19.0660 N   0  0  0  0  0  0  0  0  0  0  0  0
   -7.2350   -3.6710  -14.5360 N   0  0  0  0  0  0  0  0  0  0  0  0
   -3.3800   -2.2600  -15.8710 C   0  0  0  0  0  0  0  0  0  0  0  0
   -5.4110   -0.5220  -19.9590 C   0  0  0  0  0  0  0  0  0  0  0  0
   -6.2350   -1.9760  -17.6180 C   0  0  0  0  0  0  0  0  0  0  0  0
   -1.0370   -1.7690  -16.2690 C   0  0  0  0  0  0  0  0  0  0  0  0
   -6.8360   -2.5910  -16.4530 C   0  0  0  0  0  0  0  0  0  0  0  0
   -8.4450   -3.3310  -15.0830 N   0  0  0  0  0  0  0  0  0  0  0  0
   -6.9930   -1.4910  -18.7130 C   0  0  0  0  0  0  0  0  0  0  0  0
   -2.0320   -2.2610  -15.4670 C   0  0  0  0  0  0  0  0  0  0  0  0
  1 15  4  0
  2 12  4  0
  3  1  4  0
  3  2  4  0
  4 17  4  0
  5 14  4  0
  5  2  4  0
  6 11  4  0
  7 18  4  0
  8  5  4  0
  9  4  1  0
 10  8  4  0
 10  3  4  0
 12 19  4  0
 13  7  4  0
 13  8  4  0
 14 16  1  0
 15 19  4  0
 16  4  4  0
 16  6  4  0
 17 11  4  0
 18 14  4  0
M  END
$$$$

     RDKit          3D

 19 22  0  0  0  0  0  0  0  0999 V2000
   -1.5770   -1.1040  -16.9180 C   0  0  0  0  0  0  0  0  0  0  0  0
   -3.8790   -1.8720  -17.1010 C   0  0  0  0  0  0  0  0  0  0  0  0
   -2.7640   -1.2050  -17.5800 C   0  0  0  0  0  0  0  0  0  0  0  0
   -8.3330   -2.7980  -16.3770 C   0  0  0  0  0  0  0  0  0  0  0  0
   -5.0040   -1.6070  -17.9270 C   0  0  0  0  0  0  0  0  0  0  0  0
   -6.3020   -3.0670  -15.5900 N   0  0  0  0  0  0  0  0  0  0  0  0
   -6.7740   -0.8760  -19.9350 N   0  0  0  0  0  0  0  0  0  0  0  0
   -4.5280   -0.9190  -19.0230 C   0  0  0  0  0  0  0  0  0  0  0  0
   -9.7670   -2.3100  -17.1770 S   0  0  0  0  0  0  0  0  0  0  0  0
   -3.1650   -0.7240  -18.8680 C   0  0  0  0  0  0  0  0  0  0  0  0
   -7.2270   -3.6440  -14.7570 N   0  0  0  0  0  0  0  0  0  0  0  0
   -3.7120   -2.6920  -15.9280 C   0  0  0  0  0  0  0  0  0  0  0  0
   -5.4650   -0.6180  -20.0150 C   0  0  0  0  0  0  0  0  0  0  0  0
   -6.3530   -1.8860  -17.7140 C   0  0  0  0  0  0  0  0  0  0  0  0
   -1.5010   -1.9290  -15.7240 C   0  0  0  0  0  0  0  0  0  0  0  0
   -6.9910   -2.5170  -16.6320 C   0  0  0  0  0  0  0  0  0  0  0  0
   -8.4800   -3.5490  -15.2700 N   0  0  0  0  0  0  0  0  0  0  0  0
   -7.1630   -1.5090  -18.8030 C   0  0  0  0  0  0  0  0  0  0  0  0
   -2.5290   -2.6620  -15.2900 N   0  0  0  0  0  0  0  0  0  0  0  0
  1 15  1  0
  2 12  1  0
  3  2  1  0
  3  1  2  0
  4 17  1  0
  5 14  4  0
  5  2  2  0
  6 11  1  0
  7 18  4  0
  8 10  2  0
  8  5  4  0
  9  4  2  0
 10  3  1  0
 12 19  2  0
 13  7  4  0
 13  8  4  0
 14 16  1  0
 15 19  1  0
 16  4  1  0
 16  6  2  0
 17 11  2  0
 18 14  4  0
M  END
$$$$

     RDKit          3D

 19 22  0  0  0  0  0  0  0  0999 V2000
   -1.7140   -0.7070  -16.5000 C   0  0  0  0  0  0  0  0  0  0  0  0
   -4.0070   -1.7370  -16.9860 N   0  0  0  0  0  0  0  0  0  0  0  0
   -2.8590   -1.1280  -17.5080 C   0  0  0  0  0  0  0  0  0  0  0  0
   -8.5610   -3.1480  -16.7050 C   0  0  0  0  0  0  0  0  0  0  0  0
   -5.0960   -1.6010  -17.8130 C   0  0  0  0  0  0  0  0  0  0  0  0
   -6.5820   -2.9590  -15.5890 N   0  0  0  0  0  0  0  0  0  0  0  0
   -6.6510   -0.8460  -19.9030 C   0  0  0  0  0  0  0  0  0  0  0  0
   -4.4680   -1.0890  -18.9260 C   0  0  0  0  0  0  0  0  0  0  0  0
   -9.4920   -3.0540  -17.6560 N   0  0  0  0  0  0  0  0  0  0  0  0
   -3.0010   -0.8960  -18.9790 C   0  0  0  0  0  0  0  0  0  0  0  0
   -7.5100   -3.7070  -14.9430 N   0  0  0  0  0  0  0  0  0  0  0  0
   -3.9120   -2.2310  -15.6670 C   0  0  0  0  0  0  0  0  0  0  0  0
   -5.2830   -0.7050  -20.0400 C   0  0  0  0  0  0  0  0  0  0  0  0
   -6.4870   -1.8850  -17.8770 C   0  0  0  0  0  0  0  0  0  0  0  0
   -1.3220   -1.9440  -15.7590 C   0  0  0  0  0  0  0  0  0  0  0  0
   -7.2020   -2.5840  -16.8070 C   0  0  0  0  0  0  0  0  0  0  0  0
   -8.6400   -3.7770  -15.5350 N   0  0  0  0  0  0  0  0  0  0  0  0
   -7.2000   -1.3990  -18.8870 N   0  0  0  0  0  0  0  0  0  0  0  0
   -2.5010   -2.8270  -15.2610 C   0  0  0  0  0  0  0  0  0  0  0  0
  1 15  1  0
  2 12  1  0
  3 10  1  0
  3  2  1  0
  3  1  1  0
  4 17  4  0
  5  2  1  0
  6 11  4  0
  7 18  4  0
  8  5  4  0
  9  4  1  0
 10  8  1  0
 12 19  1  0
 13  7  4  0
 13  8  4  0
 14  5  4  0
 14 16  1  0
 15 19  1  0
 16  4  4  0
 16  6  4  0
 17 11  4  0
 18 14  4  0
M  END
$$$$

     RDKit          3D

 19 22  0  0  0  0  0  0  0  0999 V2000
   -1.1120   -0.9880  -16.6790 C   0  0  0  0  0  0  0  0  0  0  0  0
   -3.3750   -1.7530  -16.7890 C   0  0  0  0  0  0  0  0  0  0  0  0
   -2.3560   -0.9710  -17.2610 C   0  0  0  0  0  0  0  0  0  0  0  0
   -8.2250   -3.1030  -16.4640 C   0  0  0  0  0  0  0  0  0  0  0  0
   -4.6280   -1.6220  -17.5880 C   0  0  0  0  0  0  0  0  0  0  0  0
   -6.2440   -3.2210  -15.4050 C   0  0  0  0  0  0  0  0  0  0  0  0
   -6.2380   -0.9570  -19.8030 C   0  0  0  0  0  0  0  0  0  0  0  0
   -4.1120   -0.8950  -18.7100 C   0  0  0  0  0  0  0  0  0  0  0  0
   -9.3690   -2.8320  -17.3970 C   0  0  0  0  0  0  0  0  0  0  0  0
   -2.8320   -0.5430  -18.4490 N   0  0  0  0  0  0  0  0  0  0  0  0
   -7.2140   -3.9790  -14.7300 N   0  0  0  0  0  0  0  0  0  0  0  0
   -3.1730   -2.4130  -15.6620 C   0  0  0  0  0  0  0  0  0  0  0  0
   -4.9180   -0.5460  -19.8280 C   0  0  0  0  0  0  0  0  0  0  0  0
   -5.9820   -1.9540  -17.6310 C   0  0  0  0  0  0  0  0  0  0  0  0
   -0.9700   -1.6980  -15.5800 C   0  0  0  0  0  0  0  0  0  0  0  0
   -6.8460   -2.6910  -16.5380 C   0  0  0  0  0  0  0  0  0  0  0  0
   -8.4200   -3.9280  -15.4160 N   0  0  0  0  0  0  0  0  0  0  0  0
   -6.7410   -1.6240  -18.7270 C   0  0  0  0  0  0  0  0  0  0  0  0
   -1.9550   -2.4770  -15.0270 C   0  0  0  0  0  0  0  0  0  0  0  0
  1 15  1  0
  2 12  1  0
  3  2  1  0
  3  1  2  0
  4 17  4  0
  5  2  2  0
  6 11  4  0
  7 18  4  0
  8 10  2  0
  8  5  4  0
  9  4  1  0
 10  3  1  0
 12 19  2  0
 13  7  4  0
 13  8  4  0
 14  5  4  0
 14 16  1  0
 15 19  1  0
 16  4  4  0
 16  6  4  0
 17 11  4  0
 18 14  4  0
M  END
$$$$

     RDKit          3D

 19 22  0  0  0  0  0  0  0  0999 V2000
   -1.3140   -0.8510  -17.0870 C   0  0  0  0  0  0  0  0  0  0  0  0
   -3.5330   -1.7500  -16.8210 C   0  0  0  0  0  0  0  0  0  0  0  0
   -2.5820   -1.1150  -17.5680 C   0  0  0  0  0  0  0  0  0  0  0  0
   -8.2800   -3.3270  -16.4980 C   0  0  0  0  0  0  0  0  0  0  0  0
   -4.8520   -1.6950  -17.6810 C   0  0  0  0  0  0  0  0  0  0  0  0
   -6.3060   -3.2000  -15.3730 C   0  0  0  0  0  0  0  0  0  0  0  0
   -6.5120   -0.9310  -19.6910 C   0  0  0  0  0  0  0  0  0  0  0  0
   -4.4390   -0.9760  -18.7940 C   0  0  0  0  0  0  0  0  0  0  0  0
   -9.3150   -3.1150  -17.3560 N   0  0  0  0  0  0  0  0  0  0  0  0
   -3.1290   -0.7620  -18.7130 N   0  0  0  0  0  0  0  0  0  0  0  0
   -7.1810   -3.9480  -14.7310 N   0  0  0  0  0  0  0  0  0  0  0  0
   -3.2220   -2.3260  -15.6190 C   0  0  0  0  0  0  0  0  0  0  0  0
   -5.2420   -0.5870  -19.8160 N   0  0  0  0  0  0  0  0  0  0  0  0
   -6.2290   -2.0020  -17.6470 C   0  0  0  0  0  0  0  0  0  0  0  0
   -0.9780   -1.4550  -15.8050 C   0  0  0  0  0  0  0  0  0  0  0  0
   -6.9230   -2.7110  -16.6010 C   0  0  0  0  0  0  0  0  0  0  0  0
   -8.3370   -4.0500  -15.3700 N   0  0  0  0  0  0  0  0  0  0  0  0
   -7.0120   -1.6160  -18.7000 N   0  0  0  0  0  0  0  0  0  0  0  0
   -1.8900   -2.1810  -15.1260 C   0  0  0  0  0  0  0  0  0  0  0  0
  1 15  4  0
  2 12  4  0
  3  1  4  0
  3  2  4  0
  4 17  4  0
  5 14  4  0
  5  2  4  0
  6 11  4  0
  7 18  4  0
  8 10  4  0
  8  5  1  0
  9  4  1  0
 10  3  4  0
 12 19  4  0
 13  7  4  0
 13  8  4  0
 14 16  1  0
 15 19  4  0
 16  4  4  0
 16  6  4  0
 17 11  4  0
 18 14  4  0
M  END
$$$$

     RDKit          3D

 19 22  0  0  0  0  0  0  0  0999 V2000
   -1.4700   -1.0630  -17.2420 C   0  0  0  0  0  0  0  0  0  0  0  0
   -3.7140   -1.7730  -17.0560 C   0  0  0  0  0  0  0  0  0  0  0  0
   -2.7520   -1.2060  -17.6740 C   0  0  0  0  0  0  0  0  0  0  0  0
   -8.3620   -2.8370  -16.5170 N   0  0  0  0  0  0  0  0  0  0  0  0
   -4.9640   -1.6240  -17.7630 C   0  0  0  0  0  0  0  0  0  0  0  0
   -6.4830   -3.0060  -15.5050 N   0  0  0  0  0  0  0  0  0  0  0  0
   -6.6520   -0.7960  -19.8110 C   0  0  0  0  0  0  0  0  0  0  0  0
   -4.5700   -1.0100  -18.9620 C   0  0  0  0  0  0  0  0  0  0  0  0
   -9.5950   -2.4960  -17.3800 C   0  0  0  0  0  0  0  0  0  0  0  0
   -3.1870   -0.8030  -18.8330 N   0  0  0  0  0  0  0  0  0  0  0  0
   -7.4700   -3.5540  -14.8810 N   0  0  0  0  0  0  0  0  0  0  0  0
   -3.4320   -2.4200  -15.8440 C   0  0  0  0  0  0  0  0  0  0  0  0
   -5.3410   -0.6060  -20.0010 C   0  0  0  0  0  0  0  0  0  0  0  0
   -6.3830   -1.9420  -17.7370 C   0  0  0  0  0  0  0  0  0  0  0  0
   -1.1220   -1.6980  -16.0100 C   0  0  0  0  0  0  0  0  0  0  0  0
   -7.0280   -2.5230  -16.6440 C   0  0  0  0  0  0  0  0  0  0  0  0
   -8.5780   -3.4810  -15.4410 N   0  0  0  0  0  0  0  0  0  0  0  0
   -7.0750   -1.4240  -18.6990 C   0  0  0  0  0  0  0  0  0  0  0  0
   -2.1370   -2.3700  -15.3410 C   0  0  0  0  0  0  0  0  0  0  0  0
  1 15  1  0
  2 12  1  0
  3  1  2  0
  3  2  1  0
  4 17  4  0
  5 14  4  0
  5  2  2  0
  6 11  4  0
  7 18  4  0
  8 10  2  0
  8  5  4  0
  9  4  1  0
 10  3  1  0
 12 19  2  0
 13  7  4  0
 13  8  4  0
 14 16  1  0
 15 19  1  0
 16  4  4  0
 16  6  4  0
 17 11  4  0
 18 14  4  0
M  END
$$$$

     RDKit          3D

 19 22  0  0  0  0  0  0  0  0999 V2000
   -1.5380   -0.9070  -16.9270 C   0  0  0  0  0  0  0  0  0  0  0  0
   -3.7910   -1.8840  -17.0960 C   0  0  0  0  0  0  0  0  0  0  0  0
   -2.7440   -1.2010  -17.6650 C   0  0  0  0  0  0  0  0  0  0  0  0
   -8.3540   -2.6270  -16.5180 C   0  0  0  0  0  0  0  0  0  0  0  0
   -4.9400   -1.6170  -17.8340 C   0  0  0  0  0  0  0  0  0  0  0  0
   -6.4600   -2.9460  -15.5420 C   0  0  0  0  0  0  0  0  0  0  0  0
   -6.5750   -0.8860  -19.8170 N   0  0  0  0  0  0  0  0  0  0  0  0
   -4.5070   -0.9210  -18.8950 C   0  0  0  0  0  0  0  0  0  0  0  0
   -9.5620   -2.3610  -17.0970 N   0  0  0  0  0  0  0  0  0  0  0  0
   -3.1530   -0.6550  -18.7940 N   0  0  0  0  0  0  0  0  0  0  0  0
   -7.3740   -3.5900  -14.8410 N   0  0  0  0  0  0  0  0  0  0  0  0
   -3.6070   -2.6230  -16.0350 C   0  0  0  0  0  0  0  0  0  0  0  0
   -5.3780   -0.5860  -19.8910 C   0  0  0  0  0  0  0  0  0  0  0  0
   -6.3800   -1.8700  -17.7510 C   0  0  0  0  0  0  0  0  0  0  0  0
   -1.4040   -1.8010  -15.8440 C   0  0  0  0  0  0  0  0  0  0  0  0
   -7.0420   -2.4690  -16.6440 C   0  0  0  0  0  0  0  0  0  0  0  0
   -8.5900   -3.3890  -15.4380 O   0  0  0  0  0  0  0  0  0  0  0  0
   -7.1290   -1.5310  -18.7960 C   0  0  0  0  0  0  0  0  0  0  0  0
   -2.3220   -2.6500  -15.3830 C   0  0  0  0  0  0  0  0  0  0  0  0
  1 15  1  0
  2 12  1  0
  3  2  1  0
  3  1  2  0
  4 17  4  0
  5 14  4  0
  5  2  2  0
  6 11  4  0
  7 18  4  0
  8 10  2  0
  8  5  4  0
  9  4  1  0
 10  3  1  0
 12 19  2  0
 13  7  4  0
 13  8  4  0
 14 16  1  0
 15 19  1  0
 16  4  4  0
 16  6  4  0
 17 11  4  0
 18 14  4  0
M  END
$$$$

     RDKit          3D

 19 22  0  0  0  0  0  0  0  0999 V2000
   -1.3220   -1.1690  -16.7770 C   0  0  0  0  0  0  0  0  0  0  0  0
   -3.7430   -1.9260  -16.9770 C   0  0  0  0  0  0  0  0  0  0  0  0
   -2.5170   -1.3280  -17.5120 C   0  0  0  0  0  0  0  0  0  0  0  0
   -8.6060   -2.8490  -16.7630 C   0  0  0  0  0  0  0  0  0  0  0  0
   -4.9020   -1.5630  -17.8540 C   0  0  0  0  0  0  0  0  0  0  0  0
   -6.5790   -2.8360  -15.6620 N   0  0  0  0  0  0  0  0  0  0  0  0
   -6.5880   -0.7230  -20.0930 C   0  0  0  0  0  0  0  0  0  0  0  0
   -4.2930   -0.9210  -19.0010 C   0  0  0  0  0  0  0  0  0  0  0  0
   -9.6000   -2.7520  -17.6840 N   0  0  0  0  0  0  0  0  0  0  0  0
   -2.9600   -0.7320  -18.8730 C   0  0  0  0  0  0  0  0  0  0  0  0
   -7.7550   -3.4360  -14.9720 O   0  0  0  0  0  0  0  0  0  0  0  0
   -3.5430   -2.5590  -15.7240 C   0  0  0  0  0  0  0  0  0  0  0  0
   -5.1760   -0.5050  -20.2060 C   0  0  0  0  0  0  0  0  0  0  0  0
   -6.4050   -1.7090  -17.9190 C   0  0  0  0  0  0  0  0  0  0  0  0
   -1.2460   -1.8770  -15.5800 C   0  0  0  0  0  0  0  0  0  0  0  0
   -7.2250   -2.3660  -16.8470 C   0  0  0  0  0  0  0  0  0  0  0  0
   -8.8210   -3.5780  -15.7650 N   0  0  0  0  0  0  0  0  0  0  0  0
   -7.1590   -1.2530  -18.9280 N   0  0  0  0  0  0  0  0  0  0  0  0
   -2.3190   -2.4830  -15.0140 C   0  0  0  0  0  0  0  0  0  0  0  0
  1 15  1  0
  2 12  1  0
  3  2  1  0
  3  1  2  0
  4 17  1  0
  5  2  2  0
  6 11  1  0
  7 18  4  0
  8 10  2  0
  8  5  4  0
  9  4  1  0
 10  3  1  0
 12 19  2  0
 13  7  4  0
 13  8  4  0
 14  5  4  0
 14 16  1  0
 15 19  1  0
 16  4  2  0
 16  6  1  0
 17 11  1  0
 18 14  4  0
M  END
$$$$

     RDKit          3D

 19 22  0  0  0  0  0  0  0  0999 V2000
   -1.3270   -1.2190  -17.2040 C   0  0  0  0  0  0  0  0  0  0  0  0
   -3.6640   -1.6770  -17.1490 C   0  0  0  0  0  0  0  0  0  0  0  0
   -2.5830   -1.1800  -17.7440 C   0  0  0  0  0  0  0  0  0  0  0  0
   -8.3700   -2.9160  -16.4390 C   0  0  0  0  0  0  0  0  0  0  0  0
   -4.8660   -1.5750  -17.9180 C   0  0  0  0  0  0  0  0  0  0  0  0
   -6.3690   -2.9430  -15.5110 C   0  0  0  0  0  0  0  0  0  0  0  0
   -6.4960   -0.8350  -19.8900 C   0  0  0  0  0  0  0  0  0  0  0  0
   -4.3440   -0.9350  -19.0950 C   0  0  0  0  0  0  0  0  0  0  0  0
   -9.3380   -2.7440  -17.4120 N   0  0  0  0  0  0  0  0  0  0  0  0
   -2.9690   -0.7270  -18.9710 N   0  0  0  0  0  0  0  0  0  0  0  0
   -7.3300   -3.4860  -14.6940 O   0  0  0  0  0  0  0  0  0  0  0  0
   -3.4960   -2.2320  -15.8780 C   0  0  0  0  0  0  0  0  0  0  0  0
   -5.2020   -0.5750  -20.0810 N   0  0  0  0  0  0  0  0  0  0  0  0
   -6.2610   -1.9120  -17.8490 C   0  0  0  0  0  0  0  0  0  0  0  0
   -1.1220   -1.7580  -15.9520 C   0  0  0  0  0  0  0  0  0  0  0  0
   -6.9560   -2.5840  -16.7300 C   0  0  0  0  0  0  0  0  0  0  0  0
   -8.5870   -3.4230  -15.3100 N   0  0  0  0  0  0  0  0  0  0  0  0
   -7.0190   -1.4380  -18.8320 N   0  0  0  0  0  0  0  0  0  0  0  0
   -2.3080   -2.2720  -15.3000 C   0  0  0  0  0  0  0  0  0  0  0  0
  1 15  4  0
  2 12  4  0
  3  1  4  0
  3  2  4  0
  4 17  4  0
  5 14  4  0
  5  2  4  0
  6 11  4  0
  7 18  4  0
  8 10  4  0
  8  5  1  0
  9  4  1  0
 10  3  4  0
 12 19  4  0
 13  7  4  0
 13  8  4  0
 14 16  1  0
 15 19  4  0
 16  4  4  0
 16  6  4  0
 17 11  4  0
 18 14  4  0
M  END
$$$$
