
     RDKit          3D

 19 22  0  0  0  0  0  0  0  0999 V2000
   -1.4590   -0.7260  -16.9710 C   0  0  0  0  0  0  0  0  0  0  0  0
   -3.7300   -1.6610  -17.1370 C   0  0  0  0  0  0  0  0  0  0  0  0
   -2.6410   -0.9930  -17.6510 C   0  0  0  0  0  0  0  0  0  0  0  0
   -8.1640   -2.9060  -16.5090 C   0  0  0  0  0  0  0  0  0  0  0  0
   -4.8780   -1.5480  -17.9530 C   0  0  0  0  0  0  0  0  0  0  0  0
   -6.1690   -3.0170  -15.5040 N   0  0  0  0  0  0  0  0  0  0  0  0
   -6.7980   -0.9790  -19.9500 C   0  0  0  0  0  0  0  0  0  0  0  0
   -4.5470   -0.8970  -19.1590 C   0  0  0  0  0  0  0  0  0  0  0  0
   -9.1830   -2.5900  -17.2300 N   0  0  0  0  0  0  0  0  0  0  0  0
   -2.8950   -0.5300  -19.2530 S   0  0  0  0  0  0  0  0  0  0  0  0
   -7.0590   -3.5980  -14.7030 N   0  0  0  0  0  0  0  0  0  0  0  0
   -3.5060   -2.4170  -15.9790 C   0  0  0  0  0  0  0  0  0  0  0  0
   -5.4970   -0.6250  -20.1400 C   0  0  0  0  0  0  0  0  0  0  0  0
   -6.2510   -1.9290  -17.8140 C   0  0  0  0  0  0  0  0  0  0  0  0
   -1.2940   -1.3730  -15.7240 C   0  0  0  0  0  0  0  0  0  0  0  0
   -6.7540   -2.5220  -16.5960 C   0  0  0  0  0  0  0  0  0  0  0  0
   -8.3160   -3.6770  -15.3170 N   0  0  0  0  0  0  0  0  0  0  0  0
   -7.1930   -1.6860  -18.7580 C   0  0  0  0  0  0  0  0  0  0  0  0
   -2.3460   -2.2320  -15.2930 C   0  0  0  0  0  0  0  0  0  0  0  0
  1 15  4  0
  2 12  4  0
  3  2  4  0
  3  1  4  0
  4 17  4  0
  5 14  4  0
  5  2  4  0
  6 11  4  0
  7 18  4  0
  8  5  4  0
  9  4  1  0
 10  8  4  0
 10  3  4  0
 12 19  4  0
 13  7  4  0
 13  8  4  0
 14 16  1  0
 15 19  4  0
 16  4  4  0
 16  6  4  0
 17 11  4  0
 18 14  4  0
M  END
$$$$

     RDKit          3D

 19 22  0  0  0  0  0  0  0  0999 V2000
   -1.3770   -1.4020  -17.0330 C   0  0  0  0  0  0  0  0  0  0  0  0
   -3.7190   -1.9760  -17.0420 C   0  0  0  0  0  0  0  0  0  0  0  0
   -2.6240   -1.4690  -17.6450 C   0  0  0  0  0  0  0  0  0  0  0  0
   -8.2710   -2.6670  -16.6320 C   0  0  0  0  0  0  0  0  0  0  0  0
   -4.8490   -1.7070  -17.8460 C   0  0  0  0  0  0  0  0  0  0  0  0
   -6.2940   -2.8790  -15.6880 C   0  0  0  0  0  0  0  0  0  0  0  0
   -6.4770   -0.8970  -19.9700 C   0  0  0  0  0  0  0  0  0  0  0  0
   -4.2940   -0.9640  -18.9960 C   0  0  0  0  0  0  0  0  0  0  0  0
   -9.4160   -2.1980  -17.3900 C   0  0  0  0  0  0  0  0  0  0  0  0
   -3.0060   -0.8920  -18.8590 N   0  0  0  0  0  0  0  0  0  0  0  0
   -7.2660   -3.4040  -14.8380 N   0  0  0  0  0  0  0  0  0  0  0  0
   -3.6080   -2.6730  -15.8160 C   0  0  0  0  0  0  0  0  0  0  0  0
   -5.1440   -0.5580  -19.9890 C   0  0  0  0  0  0  0  0  0  0  0  0
   -6.2590   -1.8310  -17.9120 C   0  0  0  0  0  0  0  0  0  0  0  0
   -1.2610   -2.1190  -15.8930 C   0  0  0  0  0  0  0  0  0  0  0  0
   -6.9050   -2.4410  -16.7980 C   0  0  0  0  0  0  0  0  0  0  0  0
   -8.3760   -3.2040  -15.4400 N   0  0  0  0  0  0  0  0  0  0  0  0
   -6.9560   -1.5350  -18.9750 N   0  0  0  0  0  0  0  0  0  0  0  0
   -2.2970   -2.7880  -15.2620 C   0  0  0  0  0  0  0  0  0  0  0  0
  1 15  1  0
  2 12  1  0
  3  2  1  0
  3  1  2  0
  4 17  4  0
  5  2  2  0
  6 11  4  0
  7 18  4  0
  8 10  2  0
  8  5  4  0
  9  4  1  0
 10  3  1  0
 12 19  2  0
 13  7  4  0
 13  8  4  0
 14  5  4  0
 14 16  1  0
 15 19  1  0
 16  4  4  0
 16  6  4  0
 17 11  4  0
 18 14  4  0
M  END
$$$$

     RDKit          3D

 19 22  0  0  0  0  0  0  0  0999 V2000
   -1.3780   -1.1990  -17.2450 C   0  0  0  0  0  0  0  0  0  0  0  0
   -3.5820   -1.8430  -17.0880 C   0  0  0  0  0  0  0  0  0  0  0  0
   -2.5870   -1.1880  -17.7440 C   0  0  0  0  0  0  0  0  0  0  0  0
   -8.0330   -2.9910  -16.3980 C   0  0  0  0  0  0  0  0  0  0  0  0
   -4.8690   -1.5760  -17.8740 C   0  0  0  0  0  0  0  0  0  0  0  0
   -6.0320   -3.0350  -15.6560 N   0  0  0  0  0  0  0  0  0  0  0  0
   -6.6110   -0.9550  -19.6330 C   0  0  0  0  0  0  0  0  0  0  0  0
   -4.4070   -0.9630  -18.9800 C   0  0  0  0  0  0  0  0  0  0  0  0
   -9.2690   -2.8230  -17.1980 C   0  0  0  0  0  0  0  0  0  0  0  0
   -3.0650   -0.7180  -18.9710 N   0  0  0  0  0  0  0  0  0  0  0  0
   -6.8910   -3.7060  -14.7310 N   0  0  0  0  0  0  0  0  0  0  0  0
   -3.4530   -2.5900  -15.9850 C   0  0  0  0  0  0  0  0  0  0  0  0
   -5.3230   -0.6590  -19.8520 N   0  0  0  0  0  0  0  0  0  0  0  0
   -6.1990   -1.8610  -17.7350 C   0  0  0  0  0  0  0  0  0  0  0  0
   -1.1020   -1.9570  -16.1150 C   0  0  0  0  0  0  0  0  0  0  0  0
   -6.8010   -2.5430  -16.6670 C   0  0  0  0  0  0  0  0  0  0  0  0
   -8.1060   -3.6350  -15.2560 N   0  0  0  0  0  0  0  0  0  0  0  0
   -7.0680   -1.4630  -18.7440 C   0  0  0  0  0  0  0  0  0  0  0  0
   -2.1180   -2.6370  -15.5030 C   0  0  0  0  0  0  0  0  0  0  0  0
  1 15  4  0
  2 12  4  0
  3  1  4  0
  3  2  4  0
  4 17  4  0
  5  8  1  0
  5 14  1  0
  5  2  1  0
  6 11  4  0
  7 18  1  0
  8 10  2  0
  9  4  1  0
 10  3  1  0
 12 19  4  0
 13  7  2  0
 13  8  1  0
 14 16  1  0
 15 19  4  0
 16  4  4  0
 16  6  4  0
 17 11  4  0
 18 14  2  0
M  END
$$$$

     RDKit          3D

 19 22  0  0  0  0  0  0  0  0999 V2000
   -1.5020   -1.1300  -17.0090 C   0  0  0  0  0  0  0  0  0  0  0  0
   -3.8260   -2.0040  -16.9650 C   0  0  0  0  0  0  0  0  0  0  0  0
   -2.7980   -1.2090  -17.6320 C   0  0  0  0  0  0  0  0  0  0  0  0
   -8.4140   -3.2050  -16.5840 C   0  0  0  0  0  0  0  0  0  0  0  0
   -5.0570   -1.8200  -17.8440 C   0  0  0  0  0  0  0  0  0  0  0  0
   -6.7080   -3.0950  -15.3200 C   0  0  0  0  0  0  0  0  0  0  0  0
   -6.8310   -1.1030  -19.8390 C   0  0  0  0  0  0  0  0  0  0  0  0
   -4.6400   -1.0610  -18.9130 C   0  0  0  0  0  0  0  0  0  0  0  0
   -9.2820   -3.5370  -17.7670 C   0  0  0  0  0  0  0  0  0  0  0  0
   -3.3110   -0.7160  -18.8010 N   0  0  0  0  0  0  0  0  0  0  0  0
   -7.5730   -3.7210  -14.5470 C   0  0  0  0  0  0  0  0  0  0  0  0
   -3.5200   -2.7090  -15.8550 C   0  0  0  0  0  0  0  0  0  0  0  0
   -5.5650   -0.7310  -19.9280 C   0  0  0  0  0  0  0  0  0  0  0  0
   -6.4080   -2.1330  -17.7730 C   0  0  0  0  0  0  0  0  0  0  0  0
   -1.2520   -1.8640  -15.9140 C   0  0  0  0  0  0  0  0  0  0  0  0
   -7.1130   -2.7480  -16.5660 C   0  0  0  0  0  0  0  0  0  0  0  0
   -8.7990   -3.5980  -15.3690 O   0  0  0  0  0  0  0  0  0  0  0  0
   -7.2610   -1.7060  -18.7700 N   0  0  0  0  0  0  0  0  0  0  0  0
   -2.2170   -2.6250  -15.3430 C   0  0  0  0  0  0  0  0  0  0  0  0
  1 15  1  0
  2 12  1  0
  3  1  2  0
  3  2  1  0
  4  9  1  0
  4 16  1  0
  4 17  1  0
  5 14  4  0
  5  2  2  0
  6 11  1  0
  7 18  4  0
  8 10  2  0
  8  5  4  0
 10  3  1  0
 12 19  2  0
 13  7  4  0
 13  8  4  0
 14 16  1  0
 15 19  1  0
 16  6  2  0
 17 11  1  0
 18 14  4  0
M  END
$$$$

     RDKit          3D

 19 22  0  0  0  0  0  0  0  0999 V2000
   -1.2720   -0.7110  -16.9520 C   0  0  0  0  0  0  0  0  0  0  0  0
   -3.4350   -1.6700  -17.0710 C   0  0  0  0  0  0  0  0  0  0  0  0
   -2.3890   -1.0980  -17.5810 C   0  0  0  0  0  0  0  0  0  0  0  0
   -7.9640   -2.8650  -16.3890 C   0  0  0  0  0  0  0  0  0  0  0  0
   -4.5300   -1.5540  -17.7940 C   0  0  0  0  0  0  0  0  0  0  0  0
   -5.7930   -2.9490  -15.6080 N   0  0  0  0  0  0  0  0  0  0  0  0
   -6.2820   -0.8750  -19.8460 C   0  0  0  0  0  0  0  0  0  0  0  0
   -4.1300   -0.9180  -18.9380 C   0  0  0  0  0  0  0  0  0  0  0  0
   -9.1810   -2.6130  -17.1820 C   0  0  0  0  0  0  0  0  0  0  0  0
   -2.7910   -0.6920  -18.7780 N   0  0  0  0  0  0  0  0  0  0  0  0
   -6.6490   -3.5710  -14.8850 N   0  0  0  0  0  0  0  0  0  0  0  0
   -3.1910   -2.3890  -15.8910 C   0  0  0  0  0  0  0  0  0  0  0  0
   -4.9520   -0.5950  -20.0140 C   0  0  0  0  0  0  0  0  0  0  0  0
   -5.8890   -1.8520  -17.6860 C   0  0  0  0  0  0  0  0  0  0  0  0
   -0.9970   -1.4060  -15.7840 C   0  0  0  0  0  0  0  0  0  0  0  0
   -6.5320   -2.4930  -16.6310 C   0  0  0  0  0  0  0  0  0  0  0  0
   -7.9480   -3.6110  -15.2290 N   0  0  0  0  0  0  0  0  0  0  0  0
   -6.7800   -1.4380  -18.7270 C   0  0  0  0  0  0  0  0  0  0  0  0
   -1.9660   -2.1940  -15.2750 C   0  0  0  0  0  0  0  0  0  0  0  0
  1 15  1  0
  2 12  1  0
  3  2  1  0
  3  1  1  0
  4 17  4  0
  5 14  4  0
  5  2  2  0
  6 11  4  0
  7 18  4  0
  8 10  2  0
  8  5  4  0
  9  4  1  0
 10  3  1  0
 12 19  1  0
 13  7  4  0
 13  8  4  0
 14 16  1  0
 15 19  2  0
 16  4  4  0
 16  6  4  0
 17 11  4  0
 18 14  4  0
M  END
$$$$

     RDKit          3D

 19 22  0  0  0  0  0  0  0  0999 V2000
   -1.5310   -1.0760  -16.9310 C   0  0  0  0  0  0  0  0  0  0  0  0
   -3.8090   -1.6650  -17.0400 C   0  0  0  0  0  0  0  0  0  0  0  0
   -2.7350   -1.0010  -17.5490 C   0  0  0  0  0  0  0  0  0  0  0  0
   -8.3600   -2.9020  -16.5080 C   0  0  0  0  0  0  0  0  0  0  0  0
   -4.9990   -1.5420  -17.9060 C   0  0  0  0  0  0  0  0  0  0  0  0
   -6.3830   -3.0440  -15.5640 C   0  0  0  0  0  0  0  0  0  0  0  0
   -6.6120   -0.8700  -20.0300 C   0  0  0  0  0  0  0  0  0  0  0  0
   -4.4490   -0.8110  -19.0260 C   0  0  0  0  0  0  0  0  0  0  0  0
   -9.5440   -2.7700  -17.3640 C   0  0  0  0  0  0  0  0  0  0  0  0
   -3.1450   -0.5610  -18.8120 N   0  0  0  0  0  0  0  0  0  0  0  0
   -7.2380   -3.6610  -14.7700 N   0  0  0  0  0  0  0  0  0  0  0  0
   -3.5970   -2.4530  -15.8510 C   0  0  0  0  0  0  0  0  0  0  0  0
   -5.3340   -0.5380  -20.0260 C   0  0  0  0  0  0  0  0  0  0  0  0
   -6.3480   -1.9350  -17.8000 C   0  0  0  0  0  0  0  0  0  0  0  0
   -1.3320   -1.6740  -15.7570 C   0  0  0  0  0  0  0  0  0  0  0  0
   -6.9690   -2.5810  -16.6800 C   0  0  0  0  0  0  0  0  0  0  0  0
   -8.5120   -3.5690  -15.3210 N   0  0  0  0  0  0  0  0  0  0  0  0
   -7.1980   -1.5520  -18.9460 C   0  0  0  0  0  0  0  0  0  0  0  0
   -2.3330   -2.4280  -15.2370 C   0  0  0  0  0  0  0  0  0  0  0  0
  1 15  1  0
  2 12  1  0
  3  2  1  0
  3  1  2  0
  4 17  4  0
  5 14  4  0
  5  2  2  0
  6 11  4  0
  7 13  4  0
  7 18  4  0
  8 10  2  0
  8  5  4  0
  9  4  1  0
 10  3  1  0
 12 19  2  0
 13  8  4  0
 14 16  1  0
 15 19  1  0
 16  4  4  0
 16  6  4  0
 17 11  4  0
 18 14  4  0
M  END
$$$$

     RDKit          3D

 19 22  0  0  0  0  0  0  0  0999 V2000
   -1.1640   -1.4050  -17.3510 C   0  0  0  0  0  0  0  0  0  0  0  0
   -3.4900   -1.9990  -17.1830 C   0  0  0  0  0  0  0  0  0  0  0  0
   -2.4640   -1.3800  -17.9280 C   0  0  0  0  0  0  0  0  0  0  0  0
   -8.1110   -2.7610  -16.5480 N   0  0  0  0  0  0  0  0  0  0  0  0
   -4.7540   -1.6220  -18.0150 C   0  0  0  0  0  0  0  0  0  0  0  0
   -6.1660   -2.9830  -15.7030 N   0  0  0  0  0  0  0  0  0  0  0  0
   -6.5180   -0.7370  -19.9990 C   0  0  0  0  0  0  0  0  0  0  0  0
   -4.2760   -1.0280  -19.1650 C   0  0  0  0  0  0  0  0  0  0  0  0
   -9.2500   -2.3630  -17.2940 C   0  0  0  0  0  0  0  0  0  0  0  0
   -2.8940   -0.9030  -19.0990 N   0  0  0  0  0  0  0  0  0  0  0  0
   -7.1110   -3.5330  -14.8660 N   0  0  0  0  0  0  0  0  0  0  0  0
   -3.0640   -2.6740  -16.0130 C   0  0  0  0  0  0  0  0  0  0  0  0
   -5.1820   -0.6080  -20.1650 C   0  0  0  0  0  0  0  0  0  0  0  0
   -6.1480   -1.8580  -17.8610 C   0  0  0  0  0  0  0  0  0  0  0  0
   -0.8160   -2.0410  -16.3330 N   0  0  0  0  0  0  0  0  0  0  0  0
   -6.7870   -2.5380  -16.7570 C   0  0  0  0  0  0  0  0  0  0  0  0
   -8.2540   -3.3770  -15.3800 C   0  0  0  0  0  0  0  0  0  0  0  0
   -7.0360   -1.3230  -18.8120 C   0  0  0  0  0  0  0  0  0  0  0  0
   -1.7480   -2.6600  -15.6730 C   0  0  0  0  0  0  0  0  0  0  0  0
  1 15  4  0
  2 12  4  0
  3  1  4  0
  3  2  1  0
  4 17  4  0
  5 14  4  0
  5  2  4  0
  6 11  4  0
  7 18  4  0
  8 10  4  0
  8  5  4  0
  9  4  1  0
 10  3  4  0
 12 19  4  0
 13  7  4  0
 13  8  4  0
 14 16  1  0
 15 19  4  0
 16  4  4  0
 16  6  4  0
 17 11  4  0
 18 14  4  0
M  END
$$$$

     RDKit          3D

 19 22  0  0  0  0  0  0  0  0999 V2000
   -1.2860   -0.6260  -17.1640 C   0  0  0  0  0  0  0  0  0  0  0  0
   -3.4940   -1.6630  -17.0400 C   0  0  0  0  0  0  0  0  0  0  0  0
   -2.4930   -1.0190  -17.8010 C   0  0  0  0  0  0  0  0  0  0  0  0
   -8.0000   -3.2180  -16.3810 N   0  0  0  0  0  0  0  0  0  0  0  0
   -4.7180   -1.5400  -17.8280 C   0  0  0  0  0  0  0  0  0  0  0  0
   -6.0520   -3.0370  -15.4840 C   0  0  0  0  0  0  0  0  0  0  0  0
   -6.4560   -0.8450  -19.8750 N   0  0  0  0  0  0  0  0  0  0  0  0
   -4.3030   -0.9600  -19.0220 C   0  0  0  0  0  0  0  0  0  0  0  0
   -9.1570   -3.2140  -17.2200 C   0  0  0  0  0  0  0  0  0  0  0  0
   -2.9250   -0.7210  -19.0380 N   0  0  0  0  0  0  0  0  0  0  0  0
   -6.9120   -3.6740  -14.5980 N   0  0  0  0  0  0  0  0  0  0  0  0
   -3.2140   -2.2310  -15.7870 C   0  0  0  0  0  0  0  0  0  0  0  0
   -5.1760   -0.6350  -20.0070 C   0  0  0  0  0  0  0  0  0  0  0  0
   -6.1440   -1.9290  -17.6940 C   0  0  0  0  0  0  0  0  0  0  0  0
   -0.9670   -1.2150  -15.9830 C   0  0  0  0  0  0  0  0  0  0  0  0
   -6.8020   -2.6080  -16.6260 C   0  0  0  0  0  0  0  0  0  0  0  0
   -8.1240   -3.7000  -15.1970 N   0  0  0  0  0  0  0  0  0  0  0  0
   -6.9960   -1.4480  -18.7560 C   0  0  0  0  0  0  0  0  0  0  0  0
   -1.8870   -1.9690  -15.2740 C   0  0  0  0  0  0  0  0  0  0  0  0
  1 15  1  0
  2 12  1  0
  3  1  2  0
  3  2  1  0
  4 17  1  0
  5 14  4  0
  5  2  2  0
  6 11  1  0
  7 18  4  0
  8  5  4  0
  9  4  1  0
 10  8  2  0
 10  3  1  0
 12 19  2  0
 13  7  4  0
 13  8  4  0
 15 19  1  0
 16 14  1  0
 16  4  1  0
 16  6  1  0
 17 11  1  0
 18 14  4  0
M  END
$$$$

     RDKit          3D

 19 22  0  0  0  0  0  0  0  0999 V2000
   -1.4920   -0.8850  -16.9240 C   0  0  0  0  0  0  0  0  0  0  0  0
   -3.8350   -1.8250  -16.9690 C   0  0  0  0  0  0  0  0  0  0  0  0
   -2.6780   -1.1410  -17.6480 C   0  0  0  0  0  0  0  0  0  0  0  0
   -8.3470   -3.0290  -16.3270 C   0  0  0  0  0  0  0  0  0  0  0  0
   -5.0450   -1.6710  -17.8650 C   0  0  0  0  0  0  0  0  0  0  0  0
   -6.2060   -3.1130  -15.5780 N   0  0  0  0  0  0  0  0  0  0  0  0
   -6.8590   -0.9470  -19.8440 C   0  0  0  0  0  0  0  0  0  0  0  0
   -4.6730   -1.0120  -19.0850 C   0  0  0  0  0  0  0  0  0  0  0  0
   -9.6230   -2.8520  -17.1620 C   0  0  0  0  0  0  0  0  0  0  0  0
   -2.8970   -0.7100  -19.2230 S   0  0  0  0  0  0  0  0  0  0  0  0
   -6.9370   -3.9090  -14.7700 N   0  0  0  0  0  0  0  0  0  0  0  0
   -3.5920   -2.4240  -15.7270 C   0  0  0  0  0  0  0  0  0  0  0  0
   -5.4980   -0.6840  -20.1540 C   0  0  0  0  0  0  0  0  0  0  0  0
   -6.4360   -1.9440  -17.7390 C   0  0  0  0  0  0  0  0  0  0  0  0
   -1.2850   -1.4990  -15.6380 C   0  0  0  0  0  0  0  0  0  0  0  0
   -6.9760   -2.6490  -16.5330 C   0  0  0  0  0  0  0  0  0  0  0  0
   -8.2940   -3.8650  -15.2110 N   0  0  0  0  0  0  0  0  0  0  0  0
   -7.3100   -1.5520  -18.6660 N   0  0  0  0  0  0  0  0  0  0  0  0
   -2.3040   -2.3510  -15.0490 C   0  0  0  0  0  0  0  0  0  0  0  0
  1 15  4  0
  2 12  4  0
  3  2  4  0
  3  1  4  0
  4 17  4  0
  5 14  4  0
  5  2  4  0
  6 11  4  0
  7 18  4  0
  8  5  4  0
  9  4  1  0
 10  8  4  0
 10  3  4  0
 12 19  4  0
 13  7  4  0
 13  8  4  0
 14 16  1  0
 15 19  4  0
 16  4  4  0
 16  6  4  0
 17 11  4  0
 18 14  4  0
M  END
$$$$

     RDKit          3D

 19 22  0  0  0  0  0  0  0  0999 V2000
   -1.4250   -1.2550  -16.9200 C   0  0  0  0  0  0  0  0  0  0  0  0
   -3.7090   -1.9500  -17.1350 C   0  0  0  0  0  0  0  0  0  0  0  0
   -2.6040   -1.4330  -17.6320 C   0  0  0  0  0  0  0  0  0  0  0  0
   -8.2610   -2.6700  -16.4840 C   0  0  0  0  0  0  0  0  0  0  0  0
   -4.8840   -1.7080  -17.9480 C   0  0  0  0  0  0  0  0  0  0  0  0
   -6.2990   -2.7840  -15.4990 N   0  0  0  0  0  0  0  0  0  0  0  0
   -6.5730   -0.9350  -19.9900 C   0  0  0  0  0  0  0  0  0  0  0  0
   -4.4780   -1.1000  -19.1540 C   0  0  0  0  0  0  0  0  0  0  0  0
   -9.3350   -2.6310  -17.4710 C   0  0  0  0  0  0  0  0  0  0  0  0
   -2.7810   -0.8600  -19.1610 S   0  0  0  0  0  0  0  0  0  0  0  0
   -7.2230   -3.1770  -14.6200 N   0  0  0  0  0  0  0  0  0  0  0  0
   -3.5970   -2.6960  -15.9130 C   0  0  0  0  0  0  0  0  0  0  0  0
   -5.2790   -0.7210  -20.1660 N   0  0  0  0  0  0  0  0  0  0  0  0
   -6.2360   -1.8470  -17.8000 C   0  0  0  0  0  0  0  0  0  0  0  0
   -1.3150   -1.9190  -15.6690 C   0  0  0  0  0  0  0  0  0  0  0  0
   -6.9590   -2.4040  -16.6730 C   0  0  0  0  0  0  0  0  0  0  0  0
   -8.4390   -3.0650  -15.2220 N   0  0  0  0  0  0  0  0  0  0  0  0
   -7.0520   -1.4610  -18.8650 N   0  0  0  0  0  0  0  0  0  0  0  0
   -2.3720   -2.6510  -15.2230 C   0  0  0  0  0  0  0  0  0  0  0  0
  1 15  4  0
  2 12  4  0
  3  2  4  0
  3  1  4  0
  4 17  4  0
  5 14  4  0
  5  2  4  0
  6 11  4  0
  7 18  4  0
  8  5  4  0
  9  4  1  0
 10  8  4  0
 10  3  4  0
 12 19  4  0
 13  7  4  0
 13  8  4  0
 14 16  1  0
 15 19  4  0
 16  4  4  0
 16  6  4  0
 17 11  4  0
 18 14  4  0
M  END
$$$$

     RDKit          3D

 19 22  0  0  0  0  0  0  0  0999 V2000
   -1.2050   -1.0000  -17.3160 C   0  0  0  0  0  0  0  0  0  0  0  0
   -3.4730   -1.8360  -16.9730 C   0  0  0  0  0  0  0  0  0  0  0  0
   -2.4980   -1.2190  -17.6650 C   0  0  0  0  0  0  0  0  0  0  0  0
   -8.0920   -2.8720  -16.4330 C   0  0  0  0  0  0  0  0  0  0  0  0
   -4.7340   -1.6960  -17.7590 C   0  0  0  0  0  0  0  0  0  0  0  0
   -6.0660   -3.1660  -15.6030 N   0  0  0  0  0  0  0  0  0  0  0  0
   -6.5080   -0.8390  -19.7590 C   0  0  0  0  0  0  0  0  0  0  0  0
   -4.3220   -0.8950  -18.9440 C   0  0  0  0  0  0  0  0  0  0  0  0
   -9.2690   -2.4960  -17.1950 C   0  0  0  0  0  0  0  0  0  0  0  0
   -2.9810   -0.6370  -18.8540 N   0  0  0  0  0  0  0  0  0  0  0  0
   -6.9680   -3.8130  -14.7480 N   0  0  0  0  0  0  0  0  0  0  0  0
   -3.1570   -2.6170  -15.8540 C   0  0  0  0  0  0  0  0  0  0  0  0
   -5.2050   -0.5830  -19.8270 N   0  0  0  0  0  0  0  0  0  0  0  0
   -6.1490   -1.9560  -17.6920 C   0  0  0  0  0  0  0  0  0  0  0  0
   -0.8470   -1.8550  -16.1410 C   0  0  0  0  0  0  0  0  0  0  0  0
   -6.7090   -2.6240  -16.5680 C   0  0  0  0  0  0  0  0  0  0  0  0
   -8.1950   -3.6580  -15.3010 N   0  0  0  0  0  0  0  0  0  0  0  0
   -6.9940   -1.5780  -18.7710 C   0  0  0  0  0  0  0  0  0  0  0  0
   -1.8190   -2.6600  -15.4620 C   0  0  0  0  0  0  0  0  0  0  0  0
  1 15  4  0
  2 12  4  0
  3  1  4  0
  3  2  4  0
  4 17  4  0
  5 14  4  0
  5  2  4  0
  6 11  4  0
  7 18  4  0
  8 10  4  0
  8  5  1  0
  9  4  1  0
 10  3  4  0
 12 19  4  0
 13  7  4  0
 13  8  4  0
 14 16  1  0
 15 19  4  0
 16  4  4  0
 16  6  4  0
 17 11  4  0
 18 14  4  0
M  END
$$$$

     RDKit          3D

 19 22  0  0  0  0  0  0  0  0999 V2000
   -1.6590   -1.3670  -17.1040 C   0  0  0  0  0  0  0  0  0  0  0  0
   -3.9690   -1.9790  -17.0430 C   0  0  0  0  0  0  0  0  0  0  0  0
   -2.9350   -1.3930  -17.6340 C   0  0  0  0  0  0  0  0  0  0  0  0
   -8.4810   -3.1660  -16.7250 C   0  0  0  0  0  0  0  0  0  0  0  0
   -5.0920   -1.7850  -17.7910 C   0  0  0  0  0  0  0  0  0  0  0  0
   -6.6440   -3.2300  -15.5390 C   0  0  0  0  0  0  0  0  0  0  0  0
   -6.6880   -0.9430  -19.8560 C   0  0  0  0  0  0  0  0  0  0  0  0
   -4.6370   -1.0690  -18.9110 C   0  0  0  0  0  0  0  0  0  0  0  0
   -9.4910   -3.1450  -17.6390 N   0  0  0  0  0  0  0  0  0  0  0  0
   -3.3480   -0.8420  -18.8190 N   0  0  0  0  0  0  0  0  0  0  0  0
   -7.6300   -3.7220  -14.7570 N   0  0  0  0  0  0  0  0  0  0  0  0
   -3.7410   -2.6390  -15.8530 C   0  0  0  0  0  0  0  0  0  0  0  0
   -5.4040   -0.6370  -19.9080 C   0  0  0  0  0  0  0  0  0  0  0  0
   -6.4690   -2.0540  -17.7450 C   0  0  0  0  0  0  0  0  0  0  0  0
   -1.3790   -2.0680  -15.9300 C   0  0  0  0  0  0  0  0  0  0  0  0
   -7.2250   -2.7380  -16.6990 C   0  0  0  0  0  0  0  0  0  0  0  0
   -8.7440   -3.7290  -15.5330 O   0  0  0  0  0  0  0  0  0  0  0  0
   -7.2480   -1.5200  -18.7470 C   0  0  0  0  0  0  0  0  0  0  0  0
   -2.4950   -2.6900  -15.3040 C   0  0  0  0  0  0  0  0  0  0  0  0
  1 15  1  0
  2 12  1  0
  3  1  2  0
  3  2  1  0
  4 16  2  0
  4 17  1  0
  5 14  4  0
  5  2  2  0
  6 11  1  0
  7 18  4  0
  8 10  2  0
  8  5  4  0
  9  4  1  0
 10  3  1  0
 12 19  2  0
 13  7  4  0
 13  8  4  0
 14 16  1  0
 15 19  1  0
 16  6  1  0
 17 11  1  0
 18 14  4  0
M  END
$$$$

     RDKit          3D

 19 22  0  0  0  0  0  0  0  0999 V2000
   -1.2610   -0.6680  -16.8300 C   0  0  0  0  0  0  0  0  0  0  0  0
   -3.4780   -1.5560  -16.9320 C   0  0  0  0  0  0  0  0  0  0  0  0
   -2.4370   -0.8410  -17.4630 C   0  0  0  0  0  0  0  0  0  0  0  0
   -8.0450   -2.8390  -16.3960 C   0  0  0  0  0  0  0  0  0  0  0  0
   -4.6380   -1.4350  -17.7840 C   0  0  0  0  0  0  0  0  0  0  0  0
   -6.0110   -3.0160  -15.5060 N   0  0  0  0  0  0  0  0  0  0  0  0
   -6.3170   -0.7670  -19.9010 N   0  0  0  0  0  0  0  0  0  0  0  0
   -4.1460   -0.6930  -18.9300 C   0  0  0  0  0  0  0  0  0  0  0  0
   -9.0690   -2.5810  -17.2440 N   0  0  0  0  0  0  0  0  0  0  0  0
   -2.8190   -0.3680  -18.6970 N   0  0  0  0  0  0  0  0  0  0  0  0
   -6.8890   -3.5540  -14.7390 N   0  0  0  0  0  0  0  0  0  0  0  0
   -3.2580   -2.3830  -15.7890 C   0  0  0  0  0  0  0  0  0  0  0  0
   -5.0080   -0.4080  -19.9670 C   0  0  0  0  0  0  0  0  0  0  0  0
   -6.0160   -1.7350  -17.7050 C   0  0  0  0  0  0  0  0  0  0  0  0
   -1.0390   -1.4900  -15.7330 C   0  0  0  0  0  0  0  0  0  0  0  0
   -6.6010   -2.4930  -16.5700 C   0  0  0  0  0  0  0  0  0  0  0  0
   -8.1780   -3.4200  -15.3150 N   0  0  0  0  0  0  0  0  0  0  0  0
   -6.7600   -1.4310  -18.7710 C   0  0  0  0  0  0  0  0  0  0  0  0
   -2.0220   -2.3080  -15.1920 C   0  0  0  0  0  0  0  0  0  0  0  0
  1 15  1  0
  2 12  1  0
  3  2  1  0
  3  1  2  0
  4 17  4  0
  5 14  4  0
  5  2  2  0
  6 11  4  0
  7 18  4  0
  8 10  2  0
  8  5  4  0
  9  4  1  0
 10  3  1  0
 12 19  2  0
 13  7  4  0
 13  8  4  0
 14 16  1  0
 15 19  1  0
 16  4  4  0
 16  6  4  0
 17 11  4  0
 18 14  4  0
M  END
$$$$

     RDKit          3D

 19 22  0  0  0  0  0  0  0  0999 V2000
   -1.5160   -0.7720  -16.8450 C   0  0  0  0  0  0  0  0  0  0  0  0
   -3.7640   -1.7690  -16.9130 C   0  0  0  0  0  0  0  0  0  0  0  0
   -2.7380   -1.0090  -17.5050 C   0  0  0  0  0  0  0  0  0  0  0  0
   -8.2600   -2.9680  -16.5200 C   0  0  0  0  0  0  0  0  0  0  0  0
   -4.8550   -1.5510  -17.7770 C   0  0  0  0  0  0  0  0  0  0  0  0
   -6.2860   -2.8670  -15.4600 N   0  0  0  0  0  0  0  0  0  0  0  0
   -6.6090   -0.8760  -19.9130 C   0  0  0  0  0  0  0  0  0  0  0  0
   -4.3980   -0.8410  -18.9200 C   0  0  0  0  0  0  0  0  0  0  0  0
   -9.4070   -3.0410  -17.4830 C   0  0  0  0  0  0  0  0  0  0  0  0
   -3.0320   -0.5890  -18.7270 N   0  0  0  0  0  0  0  0  0  0  0  0
   -7.3160   -3.3590  -14.6380 O   0  0  0  0  0  0  0  0  0  0  0  0
   -3.4810   -2.4180  -15.7160 C   0  0  0  0  0  0  0  0  0  0  0  0
   -5.2420   -0.4990  -19.9980 C   0  0  0  0  0  0  0  0  0  0  0  0
   -6.2280   -1.9090  -17.7200 C   0  0  0  0  0  0  0  0  0  0  0  0
   -1.3190   -1.4640  -15.6320 C   0  0  0  0  0  0  0  0  0  0  0  0
   -6.8950   -2.5690  -16.6020 C   0  0  0  0  0  0  0  0  0  0  0  0
   -8.5380   -3.4200  -15.3140 N   0  0  0  0  0  0  0  0  0  0  0  0
   -6.9930   -1.5890  -18.8480 C   0  0  0  0  0  0  0  0  0  0  0  0
   -2.2810   -2.2870  -15.0860 C   0  0  0  0  0  0  0  0  0  0  0  0
  1 15  4  0
  2 12  4  0
  3  2  4  0
  3  1  4  0
  4 17  4  0
  5 14  4  0
  5  2  4  0
  6 11  4  0
  7 18  4  0
  8 10  4  0
  8  5  4  0
  9  4  1  0
 10  3  4  0
 12 19  4  0
 13  7  4  0
 13  8  4  0
 14 16  1  0
 15 19  4  0
 16  4  4  0
 16  6  4  0
 17 11  4  0
 18 14  4  0
M  END
$$$$

     RDKit          3D

 19 22  0  0  0  0  0  0  0  0999 V2000
   -1.0310   -1.3240  -17.3490 C   0  0  0  0  0  0  0  0  0  0  0  0
   -3.4550   -1.8420  -16.9960 C   0  0  0  0  0  0  0  0  0  0  0  0
   -2.3680   -1.3930  -17.8310 C   0  0  0  0  0  0  0  0  0  0  0  0
   -8.0990   -2.8640  -16.5450 C   0  0  0  0  0  0  0  0  0  0  0  0
   -4.7380   -1.6550  -17.8290 C   0  0  0  0  0  0  0  0  0  0  0  0
   -6.1400   -3.0830  -15.5980 N   0  0  0  0  0  0  0  0  0  0  0  0
   -6.4750   -0.7960  -19.9640 C   0  0  0  0  0  0  0  0  0  0  0  0
   -4.1920   -0.9620  -19.0230 C   0  0  0  0  0  0  0  0  0  0  0  0
   -9.3170   -2.5780  -17.3890 C   0  0  0  0  0  0  0  0  0  0  0  0
   -2.8210   -0.8770  -18.9460 N   0  0  0  0  0  0  0  0  0  0  0  0
   -7.0900   -3.5780  -14.8220 N   0  0  0  0  0  0  0  0  0  0  0  0
   -3.1230   -2.3880  -15.7510 C   0  0  0  0  0  0  0  0  0  0  0  0
   -5.0700   -0.6010  -20.0250 C   0  0  0  0  0  0  0  0  0  0  0  0
   -6.1300   -1.8740  -17.7620 C   0  0  0  0  0  0  0  0  0  0  0  0
   -0.7190   -2.1040  -16.2970 C   0  0  0  0  0  0  0  0  0  0  0  0
   -6.7210   -2.5850  -16.7030 C   0  0  0  0  0  0  0  0  0  0  0  0
   -8.2570   -3.5020  -15.3840 N   0  0  0  0  0  0  0  0  0  0  0  0
   -7.0070   -1.3860  -18.7490 C   0  0  0  0  0  0  0  0  0  0  0  0
   -1.7600   -2.4970  -15.3980 C   0  0  0  0  0  0  0  0  0  0  0  0
  1 15  1  0
  2 12  1  0
  3  1  2  0
  3  2  1  0
  4 17  4  0
  5 14  4  0
  5  2  2  0
  6 11  4  0
  7 18  4  0
  8 10  2  0
  8  5  4  0
  9  4  1  0
 10  3  1  0
 12 19  2  0
 13  7  4  0
 13  8  4  0
 14 16  1  0
 15 19  1  0
 16  4  4  0
 16  6  4  0
 17 11  4  0
 18 14  4  0
M  END
$$$$

     RDKit          3D

 19 22  0  0  0  0  0  0  0  0999 V2000
   -1.1770   -0.9180  -16.9490 C   0  0  0  0  0  0  0  0  0  0  0  0
   -3.5380   -1.7590  -16.9910 C   0  0  0  0  0  0  0  0  0  0  0  0
   -2.4560   -1.0720  -17.6110 C   0  0  0  0  0  0  0  0  0  0  0  0
   -8.1370   -3.0530  -16.4570 C   0  0  0  0  0  0  0  0  0  0  0  0
   -4.7540   -1.5740  -17.8890 C   0  0  0  0  0  0  0  0  0  0  0  0
   -6.1370   -3.0770  -15.5230 N   0  0  0  0  0  0  0  0  0  0  0  0
   -6.5780   -0.8560  -20.1260 C   0  0  0  0  0  0  0  0  0  0  0  0
   -4.2380   -0.8850  -19.0440 C   0  0  0  0  0  0  0  0  0  0  0  0
   -9.2090   -2.7930  -17.2810 C   0  0  0  0  0  0  0  0  0  0  0  0
   -2.8970   -0.5480  -18.8140 N   0  0  0  0  0  0  0  0  0  0  0  0
   -6.9420   -3.7430  -14.6690 N   0  0  0  0  0  0  0  0  0  0  0  0
   -3.2900   -2.5850  -15.8870 C   0  0  0  0  0  0  0  0  0  0  0  0
   -5.1800   -0.5090  -20.1980 C   0  0  0  0  0  0  0  0  0  0  0  0
   -6.2430   -1.9620  -17.7660 C   0  0  0  0  0  0  0  0  0  0  0  0
   -0.9470   -1.7180  -15.8150 C   0  0  0  0  0  0  0  0  0  0  0  0
   -6.7730   -2.6200  -16.6560 C   0  0  0  0  0  0  0  0  0  0  0  0
   -8.1540   -3.6640  -15.2090 N   0  0  0  0  0  0  0  0  0  0  0  0
   -7.0470   -1.5570  -18.9450 C   0  0  0  0  0  0  0  0  0  0  0  0
   -2.0580   -2.5300  -15.3030 C   0  0  0  0  0  0  0  0  0  0  0  0
  1 15  1  0
  2 12  1  0
  3  2  1  0
  3  1  2  0
  4 17  4  0
  5 14  4  0
  5  2  2  0
  6 11  4  0
  7 18  4  0
  8 10  2  0
  8  5  4  0
  9  4  1  0
 10  3  1  0
 12 19  2  0
 13  7  4  0
 13  8  4  0
 14 16  1  0
 15 19  1  0
 16  4  4  0
 16  6  4  0
 17 11  4  0
 18 14  4  0
M  END
$$$$

     RDKit          3D

 19 22  0  0  0  0  0  0  0  0999 V2000
   -1.2320   -1.0860  -17.0070 C   0  0  0  0  0  0  0  0  0  0  0  0
   -3.5920   -1.6490  -16.9440 C   0  0  0  0  0  0  0  0  0  0  0  0
   -2.4380   -1.0850  -17.6360 C   0  0  0  0  0  0  0  0  0  0  0  0
   -8.1870   -2.9980  -16.3470 C   0  0  0  0  0  0  0  0  0  0  0  0
   -4.8750   -1.5610  -17.7660 C   0  0  0  0  0  0  0  0  0  0  0  0
   -6.1380   -3.0390  -15.4260 N   0  0  0  0  0  0  0  0  0  0  0  0
   -6.7020   -0.8870  -19.8590 C   0  0  0  0  0  0  0  0  0  0  0  0
   -4.4650   -0.8490  -19.0520 C   0  0  0  0  0  0  0  0  0  0  0  0
   -9.3910   -2.8600  -17.2250 C   0  0  0  0  0  0  0  0  0  0  0  0
   -2.9210   -0.6010  -19.0130 C   0  0  0  0  0  0  0  0  0  0  0  0
   -6.9790   -3.7380  -14.6880 N   0  0  0  0  0  0  0  0  0  0  0  0
   -3.3370   -2.2880  -15.7500 C   0  0  0  0  0  0  0  0  0  0  0  0
   -5.4150   -0.6530  -20.0160 N   0  0  0  0  0  0  0  0  0  0  0  0
   -6.2570   -1.9300  -17.6480 C   0  0  0  0  0  0  0  0  0  0  0  0
   -1.0540   -1.6760  -15.7770 N   0  0  0  0  0  0  0  0  0  0  0  0
   -6.8350   -2.5760  -16.4750 C   0  0  0  0  0  0  0  0  0  0  0  0
   -8.2260   -3.7420  -15.1900 N   0  0  0  0  0  0  0  0  0  0  0  0
   -7.1670   -1.5370  -18.7040 C   0  0  0  0  0  0  0  0  0  0  0  0
   -2.0390   -2.3020  -15.1630 C   0  0  0  0  0  0  0  0  0  0  0  0
  1 15  4  0
  2 12  4  0
  3  1  4  0
  3  2  1  0
  4 17  4  0
  5 14  4  0
  5  2  4  0
  6 11  4  0
  7 18  4  0
  8 10  4  0
  8  5  4  0
  9  4  1  0
 10  3  4  0
 12 19  4  0
 13  7  4  0
 13  8  4  0
 14 16  1  0
 15 19  4  0
 16  4  4  0
 16  6  4  0
 17 11  4  0
 18 14  4  0
M  END
$$$$

     RDKit          3D

 19 22  0  0  0  0  0  0  0  0999 V2000
   -1.4520   -1.3440  -16.9380 C   0  0  0  0  0  0  0  0  0  0  0  0
   -3.7880   -1.9740  -17.0170 C   0  0  0  0  0  0  0  0  0  0  0  0
   -2.6780   -1.4530  -17.5620 C   0  0  0  0  0  0  0  0  0  0  0  0
   -8.3530   -2.8240  -16.5340 C   0  0  0  0  0  0  0  0  0  0  0  0
   -4.9440   -1.6680  -17.9150 C   0  0  0  0  0  0  0  0  0  0  0  0
   -6.5140   -2.8080  -15.6460 N   0  0  0  0  0  0  0  0  0  0  0  0
   -6.5460   -0.9540  -20.0010 C   0  0  0  0  0  0  0  0  0  0  0  0
   -4.3570   -1.0830  -19.0270 C   0  0  0  0  0  0  0  0  0  0  0  0
   -9.6110   -2.5760  -17.3460 C   0  0  0  0  0  0  0  0  0  0  0  0
   -3.0760   -0.9550  -18.7660 N   0  0  0  0  0  0  0  0  0  0  0  0
   -7.2490   -3.3470  -14.8090 N   0  0  0  0  0  0  0  0  0  0  0  0
   -3.5440   -2.7340  -15.8700 C   0  0  0  0  0  0  0  0  0  0  0  0
   -5.1620   -0.6840  -19.9880 C   0  0  0  0  0  0  0  0  0  0  0  0
   -6.2800   -1.7990  -17.8950 C   0  0  0  0  0  0  0  0  0  0  0  0
   -1.2230   -2.0490  -15.7870 C   0  0  0  0  0  0  0  0  0  0  0  0
   -7.0130   -2.3770  -16.7770 C   0  0  0  0  0  0  0  0  0  0  0  0
   -8.4370   -3.3070  -15.3870 N   0  0  0  0  0  0  0  0  0  0  0  0
   -7.1290   -1.4310  -18.9440 N   0  0  0  0  0  0  0  0  0  0  0  0
   -2.2850   -2.7700  -15.2790 C   0  0  0  0  0  0  0  0  0  0  0  0
  1 15  1  0
  2 12  1  0
  3  2  1  0
  3  1  2  0
  4 17  4  0
  5 14  4  0
  5  2  2  0
  6 11  4  0
  7 13  4  0
  7 18  4  0
  8 10  2  0
  8  5  4  0
  9  4  1  0
 10  3  1  0
 12 19  2  0
 13  8  4  0
 14 16  1  0
 15 19  1  0
 16  4  4  0
 16  6  4  0
 17 11  4  0
 18 14  4  0
M  END
$$$$

     RDKit          3D

 19 22  0  0  0  0  0  0  0  0999 V2000
   -1.1880   -1.5940  -17.3590 C   0  0  0  0  0  0  0  0  0  0  0  0
   -3.6200   -2.0020  -17.1460 C   0  0  0  0  0  0  0  0  0  0  0  0
   -2.5170   -1.4780  -17.8000 C   0  0  0  0  0  0  0  0  0  0  0  0
   -8.0930   -2.9610  -16.4180 C   0  0  0  0  0  0  0  0  0  0  0  0
   -4.7990   -1.7480  -17.9280 C   0  0  0  0  0  0  0  0  0  0  0  0
   -6.1270   -2.9690  -15.4720 N   0  0  0  0  0  0  0  0  0  0  0  0
   -6.5680   -0.8610  -19.7990 C   0  0  0  0  0  0  0  0  0  0  0  0
   -4.3370   -1.0560  -19.0530 C   0  0  0  0  0  0  0  0  0  0  0  0
   -9.2420   -2.6940  -17.2900 C   0  0  0  0  0  0  0  0  0  0  0  0
   -3.0200   -0.9200  -18.9420 N   0  0  0  0  0  0  0  0  0  0  0  0
   -6.9330   -3.7240  -14.6600 N   0  0  0  0  0  0  0  0  0  0  0  0
   -3.3720   -2.7840  -15.9370 C   0  0  0  0  0  0  0  0  0  0  0  0
   -5.2500   -0.6030  -19.9420 N   0  0  0  0  0  0  0  0  0  0  0  0
   -6.2260   -1.9760  -17.7940 C   0  0  0  0  0  0  0  0  0  0  0  0
   -1.0050   -2.1500  -16.1080 C   0  0  0  0  0  0  0  0  0  0  0  0
   -6.8070   -2.5860  -16.6140 C   0  0  0  0  0  0  0  0  0  0  0  0
   -8.1570   -3.6800  -15.1680 N   0  0  0  0  0  0  0  0  0  0  0  0
   -7.0130   -1.5350  -18.7940 N   0  0  0  0  0  0  0  0  0  0  0  0
   -2.0750   -2.7330  -15.4270 C   0  0  0  0  0  0  0  0  0  0  0  0
  1 15  4  0
  2 12  4  0
  3  1  4  0
  3  2  4  0
  4 17  4  0
  5 14  4  0
  5  2  4  0
  6 11  4  0
  7 18  4  0
  8 10  4  0
  8  5  1  0
  9  4  1  0
 10  3  4  0
 12 19  4  0
 13  7  4  0
 13  8  4  0
 14 16  1  0
 15 19  4  0
 16  4  4  0
 16  6  4  0
 17 11  4  0
 18 14  4  0
M  END
$$$$

     RDKit          3D

 19 22  0  0  0  0  0  0  0  0999 V2000
   -1.4830   -1.4610  -16.9110 C   0  0  0  0  0  0  0  0  0  0  0  0
   -3.9700   -2.0210  -16.8730 C   0  0  0  0  0  0  0  0  0  0  0  0
   -2.7720   -1.5110  -17.6190 C   0  0  0  0  0  0  0  0  0  0  0  0
   -8.4920   -3.1970  -16.3780 C   0  0  0  0  0  0  0  0  0  0  0  0
   -5.0390   -1.8110  -17.7490 C   0  0  0  0  0  0  0  0  0  0  0  0
   -6.4080   -3.1260  -15.2930 C   0  0  0  0  0  0  0  0  0  0  0  0
   -6.7620   -0.9580  -19.7480 C   0  0  0  0  0  0  0  0  0  0  0  0
   -4.6180   -0.9790  -18.9120 C   0  0  0  0  0  0  0  0  0  0  0  0
   -9.4180   -3.2390  -17.3950 N   0  0  0  0  0  0  0  0  0  0  0  0
   -3.2290   -0.7880  -18.8170 N   0  0  0  0  0  0  0  0  0  0  0  0
   -7.4920   -3.6030  -14.4790 N   0  0  0  0  0  0  0  0  0  0  0  0
   -3.7190   -2.5210  -15.5290 C   0  0  0  0  0  0  0  0  0  0  0  0
   -5.5110   -0.5490  -19.8900 N   0  0  0  0  0  0  0  0  0  0  0  0
   -6.4230   -2.1130  -17.6320 C   0  0  0  0  0  0  0  0  0  0  0  0
   -1.3980   -2.0700  -15.5750 C   0  0  0  0  0  0  0  0  0  0  0  0
   -7.0280   -2.6560  -16.5360 C   0  0  0  0  0  0  0  0  0  0  0  0
   -8.7160   -3.5860  -15.1190 N   0  0  0  0  0  0  0  0  0  0  0  0
   -7.3060   -1.7840  -18.7460 C   0  0  0  0  0  0  0  0  0  0  0  0
   -2.4630   -2.5480  -14.9440 N   0  0  0  0  0  0  0  0  0  0  0  0
  1 15  4  0
  2 12  4  0
  3  1  4  0
  3  2  4  0
  4 17  1  0
  5 14  2  0
  5  2  1  0
  6 11  1  0
  7 18  1  0
  8 10  2  0
  8  5  1  0
  9  4  1  0
 10  3  1  0
 12 19  4  0
 13  7  2  0
 13  8  1  0
 14 16  1  0
 15 19  4  0
 16  4  2  0
 16  6  1  0
 17 11  1  0
 18 14  1  0
M  END
$$$$

     RDKit          3D

 19 22  0  0  0  0  0  0  0  0999 V2000
   -1.2540   -0.6540  -17.0270 C   0  0  0  0  0  0  0  0  0  0  0  0
   -3.4600   -1.6660  -16.9750 C   0  0  0  0  0  0  0  0  0  0  0  0
   -2.4790   -0.9260  -17.6060 C   0  0  0  0  0  0  0  0  0  0  0  0
   -7.9780   -2.7660  -16.3390 C   0  0  0  0  0  0  0  0  0  0  0  0
   -4.6120   -1.5430  -17.8270 C   0  0  0  0  0  0  0  0  0  0  0  0
   -5.9690   -3.0290  -15.5150 N   0  0  0  0  0  0  0  0  0  0  0  0
   -6.2440   -1.0060  -19.8900 C   0  0  0  0  0  0  0  0  0  0  0  0
   -4.1790   -0.8070  -18.9790 C   0  0  0  0  0  0  0  0  0  0  0  0
   -9.0600   -2.3800  -17.1690 C   0  0  0  0  0  0  0  0  0  0  0  0
   -2.9430   -0.5140  -18.7770 N   0  0  0  0  0  0  0  0  0  0  0  0
   -6.8640   -3.5920  -14.7410 O   0  0  0  0  0  0  0  0  0  0  0  0
   -3.1920   -2.3230  -15.7820 C   0  0  0  0  0  0  0  0  0  0  0  0
   -5.0130   -0.5850  -19.9860 N   0  0  0  0  0  0  0  0  0  0  0  0
   -6.0090   -1.8640  -17.7350 C   0  0  0  0  0  0  0  0  0  0  0  0
   -0.9680   -1.3010  -15.8290 C   0  0  0  0  0  0  0  0  0  0  0  0
   -6.6150   -2.5130  -16.6120 C   0  0  0  0  0  0  0  0  0  0  0  0
   -8.0610   -3.4050  -15.2160 N   0  0  0  0  0  0  0  0  0  0  0  0
   -6.7000   -1.6160  -18.8040 N   0  0  0  0  0  0  0  0  0  0  0  0
   -1.9260   -2.1600  -15.2650 C   0  0  0  0  0  0  0  0  0  0  0  0
  1 15  4  0
  2 12  4  0
  3  1  4  0
  3  2  4  0
  4 17  4  0
  5  8  1  0
  5 14  1  0
  5  2  1  0
  6 11  4  0
  7 18  1  0
  8 10  2  0
  9  4  1  0
 10  3  1  0
 12 19  4  0
 13  7  2  0
 13  8  1  0
 14 16  1  0
 15 19  4  0
 16  4  4  0
 16  6  4  0
 17 11  4  0
 18 14  2  0
M  END
$$$$

     RDKit          3D

 19 22  0  0  0  0  0  0  0  0999 V2000
   -1.4840   -0.9100  -16.8180 C   0  0  0  0  0  0  0  0  0  0  0  0
   -3.7920   -1.7580  -16.9630 C   0  0  0  0  0  0  0  0  0  0  0  0
   -2.6630   -1.1400  -17.5180 C   0  0  0  0  0  0  0  0  0  0  0  0
   -8.2980   -2.8980  -16.4760 N   0  0  0  0  0  0  0  0  0  0  0  0
   -4.9170   -1.5570  -17.8790 C   0  0  0  0  0  0  0  0  0  0  0  0
   -6.4620   -2.9360  -15.5170 N   0  0  0  0  0  0  0  0  0  0  0  0
   -6.5740   -0.8960  -19.9740 C   0  0  0  0  0  0  0  0  0  0  0  0
   -4.3690   -0.9160  -19.0040 C   0  0  0  0  0  0  0  0  0  0  0  0
   -9.4900   -2.8230  -17.3610 C   0  0  0  0  0  0  0  0  0  0  0  0
   -2.9950   -0.7290  -18.7790 N   0  0  0  0  0  0  0  0  0  0  0  0
   -7.3660   -3.4580  -14.7870 N   0  0  0  0  0  0  0  0  0  0  0  0
   -3.6270   -2.4110  -15.7510 C   0  0  0  0  0  0  0  0  0  0  0  0
   -5.2240   -0.6490  -20.0590 C   0  0  0  0  0  0  0  0  0  0  0  0
   -6.3110   -1.9100  -17.7570 C   0  0  0  0  0  0  0  0  0  0  0  0
   -1.3420   -1.6370  -15.6100 C   0  0  0  0  0  0  0  0  0  0  0  0
   -6.9810   -2.5170  -16.6910 C   0  0  0  0  0  0  0  0  0  0  0  0
   -8.3970   -3.4780  -15.4160 N   0  0  0  0  0  0  0  0  0  0  0  0
   -7.0800   -1.5030  -18.8730 C   0  0  0  0  0  0  0  0  0  0  0  0
   -2.3620   -2.3840  -15.1050 C   0  0  0  0  0  0  0  0  0  0  0  0
  1 15  1  0
  2 12  1  0
  3  2  1  0
  3  1  2  0
  4 17  4  0
  5 14  4  0
  5  2  2  0
  6 11  4  0
  7 18  4  0
  8 10  2  0
  8  5  4  0
  9  4  1  0
 10  3  1  0
 12 19  2  0
 13  7  4  0
 13  8  4  0
 14 16  1  0
 15 19  1  0
 16  4  4  0
 16  6  4  0
 17 11  4  0
 18 14  4  0
M  END
$$$$

     RDKit          3D

 19 22  0  0  0  0  0  0  0  0999 V2000
   -1.0120   -1.4710  -17.2170 C   0  0  0  0  0  0  0  0  0  0  0  0
   -3.3950   -1.9910  -17.0610 C   0  0  0  0  0  0  0  0  0  0  0  0
   -2.3520   -1.4200  -17.7440 C   0  0  0  0  0  0  0  0  0  0  0  0
   -8.1060   -2.7540  -16.6260 C   0  0  0  0  0  0  0  0  0  0  0  0
   -4.6550   -1.7350  -17.8450 C   0  0  0  0  0  0  0  0  0  0  0  0
   -6.1460   -2.9430  -15.5440 C   0  0  0  0  0  0  0  0  0  0  0  0
   -6.4600   -0.8370  -19.8130 N   0  0  0  0  0  0  0  0  0  0  0  0
   -4.3500   -1.0570  -19.1170 C   0  0  0  0  0  0  0  0  0  0  0  0
   -9.2340   -2.5320  -17.5230 C   0  0  0  0  0  0  0  0  0  0  0  0
   -2.9470   -0.8960  -19.0160 N   0  0  0  0  0  0  0  0  0  0  0  0
   -7.1320   -3.5010  -14.7680 N   0  0  0  0  0  0  0  0  0  0  0  0
   -3.1380   -2.6260  -15.8320 C   0  0  0  0  0  0  0  0  0  0  0  0
   -5.2030   -0.6360  -20.0380 N   0  0  0  0  0  0  0  0  0  0  0  0
   -6.0830   -1.8660  -17.7250 C   0  0  0  0  0  0  0  0  0  0  0  0
   -0.8110   -2.0860  -16.0480 C   0  0  0  0  0  0  0  0  0  0  0  0
   -6.7160   -2.5110  -16.6780 C   0  0  0  0  0  0  0  0  0  0  0  0
   -8.3250   -3.4190  -15.4070 O   0  0  0  0  0  0  0  0  0  0  0  0
   -6.8690   -1.3700  -18.6950 N   0  0  0  0  0  0  0  0  0  0  0  0
   -1.8500   -2.6450  -15.3380 C   0  0  0  0  0  0  0  0  0  0  0  0
  1 15  4  0
  2 12  4  0
  3  1  4  0
  3  2  4  0
  4 17  4  0
  5  8  1  0
  5 14  1  0
  5  2  1  0
  6 11  4  0
  7 18  1  0
  8 10  2  0
  9  4  1  0
 10  3  1  0
 12 19  4  0
 13  7  2  0
 13  8  1  0
 14 16  1  0
 15 19  4  0
 16  4  4  0
 16  6  4  0
 17 11  4  0
 18 14  2  0
M  END
$$$$

     RDKit          3D

 19 22  0  0  0  0  0  0  0  0999 V2000
   -1.1640   -0.7380  -17.0630 C   0  0  0  0  0  0  0  0  0  0  0  0
   -3.5220   -1.7000  -17.0110 C   0  0  0  0  0  0  0  0  0  0  0  0
   -2.4490   -0.9960  -17.7140 C   0  0  0  0  0  0  0  0  0  0  0  0
   -8.0520   -3.0810  -16.5220 C   0  0  0  0  0  0  0  0  0  0  0  0
   -4.6410   -1.5840  -17.7230 C   0  0  0  0  0  0  0  0  0  0  0  0
   -6.1770   -3.0520  -15.5210 N   0  0  0  0  0  0  0  0  0  0  0  0
   -6.3620   -0.7970  -19.8520 C   0  0  0  0  0  0  0  0  0  0  0  0
   -4.3070   -0.9220  -18.8930 C   0  0  0  0  0  0  0  0  0  0  0  0
   -9.3040   -2.8750  -17.3160 C   0  0  0  0  0  0  0  0  0  0  0  0
   -2.9630   -0.5910  -18.8070 N   0  0  0  0  0  0  0  0  0  0  0  0
   -7.0060   -3.8140  -14.7710 N   0  0  0  0  0  0  0  0  0  0  0  0
   -3.0750   -2.3010  -15.8100 C   0  0  0  0  0  0  0  0  0  0  0  0
   -4.9970   -0.5410  -19.8490 N   0  0  0  0  0  0  0  0  0  0  0  0
   -6.0470   -1.9020  -17.7000 C   0  0  0  0  0  0  0  0  0  0  0  0
   -0.8800   -1.3250  -15.9090 N   0  0  0  0  0  0  0  0  0  0  0  0
   -6.7230   -2.5830  -16.6420 C   0  0  0  0  0  0  0  0  0  0  0  0
   -8.1380   -3.8040  -15.3920 N   0  0  0  0  0  0  0  0  0  0  0  0
   -6.7960   -1.4650  -18.7780 C   0  0  0  0  0  0  0  0  0  0  0  0
   -1.7910   -2.0070  -15.3610 C   0  0  0  0  0  0  0  0  0  0  0  0
  1 15  4  0
  2 12  4  0
  3  1  4  0
  3  2  4  0
  4 17  4  0
  5 14  2  0
  5  2  1  0
  6 11  4  0
  7 13  2  0
  7 18  1  0
  8 10  2  0
  8  5  1  0
  9  4  1  0
 10  3  1  0
 12 19  4  0
 13  8  1  0
 14 16  1  0
 15 19  4  0
 16  4  4  0
 16  6  4  0
 17 11  4  0
 18 14  1  0
M  END
$$$$

     RDKit          3D

 19 22  0  0  0  0  0  0  0  0999 V2000
   -1.5290   -0.6780  -17.1750 C   0  0  0  0  0  0  0  0  0  0  0  0
   -3.8100   -1.6940  -17.1190 C   0  0  0  0  0  0  0  0  0  0  0  0
   -2.7620   -1.0320  -17.7600 C   0  0  0  0  0  0  0  0  0  0  0  0
   -8.3930   -3.0220  -16.2830 C   0  0  0  0  0  0  0  0  0  0  0  0
   -5.0360   -1.5620  -17.8810 C   0  0  0  0  0  0  0  0  0  0  0  0
   -6.3730   -2.9790  -15.4450 N   0  0  0  0  0  0  0  0  0  0  0  0
   -6.9440   -1.0060  -19.8420 N   0  0  0  0  0  0  0  0  0  0  0  0
   -4.6670   -0.9260  -19.0810 C   0  0  0  0  0  0  0  0  0  0  0  0
   -9.5940   -2.7770  -17.0400 C   0  0  0  0  0  0  0  0  0  0  0  0
   -3.0080   -0.4660  -19.3930 S   0  0  0  0  0  0  0  0  0  0  0  0
   -7.0600   -3.7480  -14.6620 N   0  0  0  0  0  0  0  0  0  0  0  0
   -3.5480   -2.3550  -15.9100 C   0  0  0  0  0  0  0  0  0  0  0  0
   -5.6490   -0.6170  -20.0910 C   0  0  0  0  0  0  0  0  0  0  0  0
   -6.4850   -1.9490  -17.6440 C   0  0  0  0  0  0  0  0  0  0  0  0
   -1.2820   -1.3740  -15.9230 C   0  0  0  0  0  0  0  0  0  0  0  0
   -7.0720   -2.5890  -16.5440 C   0  0  0  0  0  0  0  0  0  0  0  0
   -8.3420   -3.7660  -15.1660 N   0  0  0  0  0  0  0  0  0  0  0  0
   -7.4020   -1.5700  -18.7010 C   0  0  0  0  0  0  0  0  0  0  0  0
   -2.2650   -2.3110  -15.3500 C   0  0  0  0  0  0  0  0  0  0  0  0
  1 15  4  0
  2 12  4  0
  3  1  4  0
  3  2  4  0
  4 17  4  0
  5 14  4  0
  5  2  4  0
  6 11  4  0
  7 18  4  0
  8  5  4  0
  9  4  1  0
 10  8  4  0
 10  3  4  0
 12 19  4  0
 13  7  4  0
 13  8  4  0
 14 16  1  0
 15 19  4  0
 16  4  4  0
 16  6  4  0
 17 11  4  0
 18 14  4  0
M  END
$$$$

     RDKit          3D

 19 22  0  0  0  0  0  0  0  0999 V2000
   -1.5770   -1.0070  -16.7380 C   0  0  0  0  0  0  0  0  0  0  0  0
   -3.7150   -2.0740  -17.0130 C   0  0  0  0  0  0  0  0  0  0  0  0
   -2.6530   -1.2790  -17.5560 C   0  0  0  0  0  0  0  0  0  0  0  0
   -8.1850   -2.6730  -16.5340 N   0  0  0  0  0  0  0  0  0  0  0  0
   -4.8640   -1.7170  -17.8980 C   0  0  0  0  0  0  0  0  0  0  0  0
   -6.2420   -2.9040  -15.6520 N   0  0  0  0  0  0  0  0  0  0  0  0
   -6.4370   -0.8930  -20.0180 C   0  0  0  0  0  0  0  0  0  0  0  0
   -4.3560   -1.0540  -19.0230 C   0  0  0  0  0  0  0  0  0  0  0  0
   -9.3760   -2.5110  -17.3770 C   0  0  0  0  0  0  0  0  0  0  0  0
   -3.0300   -0.8420  -18.7400 N   0  0  0  0  0  0  0  0  0  0  0  0
   -7.1620   -3.2220  -14.7760 C   0  0  0  0  0  0  0  0  0  0  0  0
   -3.4250   -2.8820  -15.9280 N   0  0  0  0  0  0  0  0  0  0  0  0
   -5.1130   -0.5920  -20.0410 N   0  0  0  0  0  0  0  0  0  0  0  0
   -6.2930   -1.9210  -17.9500 C   0  0  0  0  0  0  0  0  0  0  0  0
   -1.3160   -1.7870  -15.6280 C   0  0  0  0  0  0  0  0  0  0  0  0
   -6.9050   -2.5880  -16.8390 C   0  0  0  0  0  0  0  0  0  0  0  0
   -8.4050   -3.0800  -15.1960 N   0  0  0  0  0  0  0  0  0  0  0  0
   -7.0150   -1.5170  -19.0270 N   0  0  0  0  0  0  0  0  0  0  0  0
   -2.2180   -2.7620  -15.2540 C   0  0  0  0  0  0  0  0  0  0  0  0
  1 15  4  0
  2 12  4  0
  3  2  4  0
  3  1  4  0
  4 17  4  0
  5  2  4  0
  6 11  4  0
  7 18  4  0
  8 10  4  0
  8  5  1  0
  9  4  1  0
 10  3  4  0
 12 19  4  0
 13  7  4  0
 13  8  4  0
 14  5  4  0
 14 16  1  0
 15 19  4  0
 16  4  4  0
 16  6  4  0
 17 11  4  0
 18 14  4  0
M  END
$$$$

     RDKit          3D

 19 22  0  0  0  0  0  0  0  0999 V2000
   -1.3110   -0.9050  -17.1130 C   0  0  0  0  0  0  0  0  0  0  0  0
   -3.6200   -1.8650  -17.0020 C   0  0  0  0  0  0  0  0  0  0  0  0
   -2.5190   -1.1570  -17.6650 C   0  0  0  0  0  0  0  0  0  0  0  0
   -8.0210   -3.0580  -16.3470 N   0  0  0  0  0  0  0  0  0  0  0  0
   -4.7940   -1.6190  -17.7400 C   0  0  0  0  0  0  0  0  0  0  0  0
   -6.0370   -3.1080  -15.4190 C   0  0  0  0  0  0  0  0  0  0  0  0
   -6.6210   -1.0410  -19.5280 C   0  0  0  0  0  0  0  0  0  0  0  0
   -4.4710   -0.9340  -18.8920 C   0  0  0  0  0  0  0  0  0  0  0  0
   -9.1780   -2.9630  -17.1890 C   0  0  0  0  0  0  0  0  0  0  0  0
   -3.1240   -0.6470  -18.8520 N   0  0  0  0  0  0  0  0  0  0  0  0
   -6.8780   -3.8310  -14.5750 N   0  0  0  0  0  0  0  0  0  0  0  0
   -3.2920   -2.6340  -15.8220 C   0  0  0  0  0  0  0  0  0  0  0  0
   -5.3660   -0.6430  -19.8650 N   0  0  0  0  0  0  0  0  0  0  0  0
   -6.1600   -1.9790  -17.5900 C   0  0  0  0  0  0  0  0  0  0  0  0
   -0.8420   -1.9970  -16.0670 C   0  0  0  0  0  0  0  0  0  0  0  0
   -6.7260   -2.6640  -16.5380 C   0  0  0  0  0  0  0  0  0  0  0  0
   -8.0760   -3.6610  -15.1980 N   0  0  0  0  0  0  0  0  0  0  0  0
   -7.0570   -1.6790  -18.4610 N   0  0  0  0  0  0  0  0  0  0  0  0
   -1.9880   -2.7120  -15.3890 C   0  0  0  0  0  0  0  0  0  0  0  0
  1 15  1  0
  2 12  1  0
  3  1  1  0
  3  2  1  0
  4 17  4  0
  5 14  4  0
  5  2  2  0
  6 11  4  0
  7 18  4  0
  8 10  2  0
  8  5  4  0
  9  4  1  0
 10  3  1  0
 12 19  2  0
 13  7  4  0
 13  8  4  0
 14 16  1  0
 15 19  1  0
 16  4  4  0
 16  6  4  0
 17 11  4  0
 18 14  4  0
M  END
$$$$

     RDKit          3D

 19 22  0  0  0  0  0  0  0  0999 V2000
   -1.6560   -1.5050  -17.0900 C   0  0  0  0  0  0  0  0  0  0  0  0
   -3.9350   -2.0270  -16.9560 C   0  0  0  0  0  0  0  0  0  0  0  0
   -2.8840   -1.5620  -17.5770 C   0  0  0  0  0  0  0  0  0  0  0  0
   -8.4600   -2.9580  -16.6760 C   0  0  0  0  0  0  0  0  0  0  0  0
   -5.0020   -1.7370  -17.8890 C   0  0  0  0  0  0  0  0  0  0  0  0
   -6.5790   -2.6750  -15.4190 C   0  0  0  0  0  0  0  0  0  0  0  0
   -6.6090   -0.9490  -19.9730 C   0  0  0  0  0  0  0  0  0  0  0  0
   -4.5100   -1.1020  -18.9830 C   0  0  0  0  0  0  0  0  0  0  0  0
   -9.5660   -3.0790  -17.4920 C   0  0  0  0  0  0  0  0  0  0  0  0
   -3.3110   -0.9750  -18.7550 N   0  0  0  0  0  0  0  0  0  0  0  0
   -7.5380   -3.1750  -14.6720 N   0  0  0  0  0  0  0  0  0  0  0  0
   -3.7030   -2.5130  -15.7480 C   0  0  0  0  0  0  0  0  0  0  0  0
   -5.2800   -0.6600  -20.0390 C   0  0  0  0  0  0  0  0  0  0  0  0
   -6.4900   -1.9530  -17.8180 C   0  0  0  0  0  0  0  0  0  0  0  0
   -1.4080   -2.0860  -15.9300 C   0  0  0  0  0  0  0  0  0  0  0  0
   -7.1560   -2.5610  -16.7510 C   0  0  0  0  0  0  0  0  0  0  0  0
   -8.6270   -3.4580  -15.4150 O   0  0  0  0  0  0  0  0  0  0  0  0
   -7.1790   -1.6020  -18.8950 C   0  0  0  0  0  0  0  0  0  0  0  0
   -2.4390   -2.5390  -15.2670 C   0  0  0  0  0  0  0  0  0  0  0  0
  1 15  1  0
  2 12  1  0
  3  1  2  0
  3  2  1  0
  4 17  4  0
  5 14  4  0
  5  2  2  0
  6 11  4  0
  7 18  4  0
  8 10  2  0
  8  5  4  0
  9  4  1  0
 10  3  1  0
 12 19  2  0
 13  7  4  0
 13  8  4  0
 14 16  1  0
 15 19  1  0
 16  4  4  0
 16  6  4  0
 17 11  4  0
 18 14  4  0
M  END
$$$$

     RDKit          3D

 19 22  0  0  0  0  0  0  0  0999 V2000
   -1.2200   -0.7540  -16.8980 C   0  0  0  0  0  0  0  0  0  0  0  0
   -3.5070   -1.5760  -16.9340 C   0  0  0  0  0  0  0  0  0  0  0  0
   -2.4680   -0.9090  -17.5580 C   0  0  0  0  0  0  0  0  0  0  0  0
   -8.0170   -2.7990  -16.4800 C   0  0  0  0  0  0  0  0  0  0  0  0
   -4.7400   -1.4520  -17.8430 C   0  0  0  0  0  0  0  0  0  0  0  0
   -6.0560   -2.8790  -15.4490 C   0  0  0  0  0  0  0  0  0  0  0  0
   -6.4400   -0.9480  -19.9800 C   0  0  0  0  0  0  0  0  0  0  0  0
   -4.2230   -0.8710  -18.9710 C   0  0  0  0  0  0  0  0  0  0  0  0
   -9.0510   -2.6990  -17.2860 N   0  0  0  0  0  0  0  0  0  0  0  0
   -2.9070   -0.5210  -18.8700 N   0  0  0  0  0  0  0  0  0  0  0  0
   -6.9920   -3.4800  -14.6340 N   0  0  0  0  0  0  0  0  0  0  0  0
   -3.1420   -2.3960  -15.8560 C   0  0  0  0  0  0  0  0  0  0  0  0
   -5.1000   -0.5790  -20.0460 C   0  0  0  0  0  0  0  0  0  0  0  0
   -6.0730   -1.8400  -17.7870 C   0  0  0  0  0  0  0  0  0  0  0  0
   -0.9420   -1.5070  -15.8370 C   0  0  0  0  0  0  0  0  0  0  0  0
   -6.7440   -2.4740  -16.6430 C   0  0  0  0  0  0  0  0  0  0  0  0
   -8.2370   -3.3880  -15.2440 N   0  0  0  0  0  0  0  0  0  0  0  0
   -6.8860   -1.5200  -18.7880 C   0  0  0  0  0  0  0  0  0  0  0  0
   -1.9000   -2.3710  -15.3180 C   0  0  0  0  0  0  0  0  0  0  0  0
  1 15  1  0
  2 12  1  0
  3  2  1  0
  3  1  2  0
  4 17  4  0
  5 14  4  0
  5  2  2  0
  6 11  4  0
  7 18  4  0
  8 10  2  0
  8  5  4  0
  9  4  1  0
 10  3  1  0
 12 19  2  0
 13  7  4  0
 13  8  4  0
 14 16  1  0
 15 19  1  0
 16  4  4  0
 16  6  4  0
 17 11  4  0
 18 14  4  0
M  END
$$$$

     RDKit          3D

 19 22  0  0  0  0  0  0  0  0999 V2000
   -1.3510   -0.8540  -17.0710 C   0  0  0  0  0  0  0  0  0  0  0  0
   -3.7250   -1.6580  -16.9470 C   0  0  0  0  0  0  0  0  0  0  0  0
   -2.6290   -0.9360  -17.6730 C   0  0  0  0  0  0  0  0  0  0  0  0
   -8.2940   -2.8430  -16.5330 C   0  0  0  0  0  0  0  0  0  0  0  0
   -4.9380   -1.5550  -17.8730 C   0  0  0  0  0  0  0  0  0  0  0  0
   -6.2890   -2.8700  -15.6400 N   0  0  0  0  0  0  0  0  0  0  0  0
   -6.6300   -0.8510  -19.9740 C   0  0  0  0  0  0  0  0  0  0  0  0
   -4.4150   -0.9250  -19.0620 C   0  0  0  0  0  0  0  0  0  0  0  0
   -9.5070   -2.7280  -17.3910 C   0  0  0  0  0  0  0  0  0  0  0  0
   -3.0040   -0.7640  -18.8540 N   0  0  0  0  0  0  0  0  0  0  0  0
   -7.1390   -3.4860  -14.7970 N   0  0  0  0  0  0  0  0  0  0  0  0
   -3.4180   -2.3600  -15.7900 C   0  0  0  0  0  0  0  0  0  0  0  0
   -5.1720   -0.5500  -20.0650 C   0  0  0  0  0  0  0  0  0  0  0  0
   -6.2540   -1.7930  -17.7570 C   0  0  0  0  0  0  0  0  0  0  0  0
   -1.1150   -1.6220  -15.9420 C   0  0  0  0  0  0  0  0  0  0  0  0
   -6.8840   -2.4610  -16.6890 C   0  0  0  0  0  0  0  0  0  0  0  0
   -8.3670   -3.4850  -15.3200 N   0  0  0  0  0  0  0  0  0  0  0  0
   -7.1070   -1.4390  -18.8670 C   0  0  0  0  0  0  0  0  0  0  0  0
   -2.1320   -2.3370  -15.3070 C   0  0  0  0  0  0  0  0  0  0  0  0
  1 15  4  0
  2 12  4  0
  3  1  4  0
  3  2  4  0
  4 17  4  0
  5 14  4  0
  5  2  4  0
  6 11  4  0
  7 18  4  0
  8 10  4  0
  8  5  4  0
  9  4  1  0
 10  3  4  0
 12 19  4  0
 13  7  4  0
 13  8  4  0
 14 16  1  0
 15 19  4  0
 16  4  4  0
 16  6  4  0
 17 11  4  0
 18 14  4  0
M  END
$$$$

     RDKit          3D

 19 22  0  0  0  0  0  0  0  0999 V2000
   -1.1080   -1.7850  -17.3810 C   0  0  0  0  0  0  0  0  0  0  0  0
   -3.5380   -2.0630  -17.1010 C   0  0  0  0  0  0  0  0  0  0  0  0
   -2.4640   -1.5110  -17.7910 C   0  0  0  0  0  0  0  0  0  0  0  0
   -8.2090   -2.8610  -16.4710 C   0  0  0  0  0  0  0  0  0  0  0  0
   -4.7390   -1.7090  -17.9430 C   0  0  0  0  0  0  0  0  0  0  0  0
   -6.0890   -3.0800  -15.8170 N   0  0  0  0  0  0  0  0  0  0  0  0
   -6.3810   -0.5850  -19.9530 N   0  0  0  0  0  0  0  0  0  0  0  0
   -4.2340   -1.1170  -19.0040 C   0  0  0  0  0  0  0  0  0  0  0  0
   -9.4570   -2.4260  -17.1730 C   0  0  0  0  0  0  0  0  0  0  0  0
   -2.8640   -1.0760  -18.9740 N   0  0  0  0  0  0  0  0  0  0  0  0
   -6.8240   -3.7350  -14.7790 N   0  0  0  0  0  0  0  0  0  0  0  0
   -3.3060   -2.7170  -15.8780 C   0  0  0  0  0  0  0  0  0  0  0  0
   -5.0530   -0.5340  -20.0030 C   0  0  0  0  0  0  0  0  0  0  0  0
   -6.1560   -1.8550  -17.8800 C   0  0  0  0  0  0  0  0  0  0  0  0
   -0.9110   -2.2670  -16.1280 C   0  0  0  0  0  0  0  0  0  0  0  0
   -6.8180   -2.6120  -16.7920 C   0  0  0  0  0  0  0  0  0  0  0  0
   -8.2150   -3.5760  -15.2990 N   0  0  0  0  0  0  0  0  0  0  0  0
   -6.9560   -1.2580  -18.8730 C   0  0  0  0  0  0  0  0  0  0  0  0
   -1.9920   -2.7500  -15.3730 C   0  0  0  0  0  0  0  0  0  0  0  0
  1 15  1  0
  2 12  1  0
  3  1  2  0
  3  2  1  0
  4 17  4  0
  5 14  4  0
  5  2  2  0
  6 11  4  0
  7 18  4  0
  8 10  2  0
  8  5  4  0
  9  4  1  0
 10  3  1  0
 12 19  2  0
 13  7  4  0
 13  8  4  0
 14 16  1  0
 15 19  1  0
 16  4  4  0
 16  6  4  0
 17 11  4  0
 18 14  4  0
M  END
$$$$

     RDKit          3D

 19 22  0  0  0  0  0  0  0  0999 V2000
   -1.1590   -1.0460  -17.1290 C   0  0  0  0  0  0  0  0  0  0  0  0
   -3.5500   -1.7430  -16.9690 C   0  0  0  0  0  0  0  0  0  0  0  0
   -2.4870   -1.1220  -17.6760 C   0  0  0  0  0  0  0  0  0  0  0  0
   -8.1360   -2.9960  -16.4330 C   0  0  0  0  0  0  0  0  0  0  0  0
   -4.7370   -1.5570  -17.8600 C   0  0  0  0  0  0  0  0  0  0  0  0
   -6.0330   -3.1840  -15.5170 N   0  0  0  0  0  0  0  0  0  0  0  0
   -6.4260   -1.0460  -19.9890 C   0  0  0  0  0  0  0  0  0  0  0  0
   -4.3470   -0.9060  -18.8990 N   0  0  0  0  0  0  0  0  0  0  0  0
   -9.3700   -2.7950  -17.3140 C   0  0  0  0  0  0  0  0  0  0  0  0
   -2.9460   -0.5210  -18.8080 N   0  0  0  0  0  0  0  0  0  0  0  0
   -7.0180   -3.7530  -14.7790 N   0  0  0  0  0  0  0  0  0  0  0  0
   -3.2930   -2.3290  -15.7340 C   0  0  0  0  0  0  0  0  0  0  0  0
   -5.1510   -0.5570  -19.9800 C   0  0  0  0  0  0  0  0  0  0  0  0
   -6.1470   -1.9950  -17.7540 C   0  0  0  0  0  0  0  0  0  0  0  0
   -0.9590   -1.6130  -15.8690 C   0  0  0  0  0  0  0  0  0  0  0  0
   -6.7050   -2.6370  -16.6670 C   0  0  0  0  0  0  0  0  0  0  0  0
   -8.2310   -3.6850  -15.2930 N   0  0  0  0  0  0  0  0  0  0  0  0
   -6.9240   -1.6860  -18.8940 C   0  0  0  0  0  0  0  0  0  0  0  0
   -2.0110   -2.2970  -15.1730 C   0  0  0  0  0  0  0  0  0  0  0  0
  1 15  4  0
  2 12  4  0
  3  1  4  0
  3  2  4  0
  4 17  4  0
  5 14  4  0
  5  2  4  0
  6 11  4  0
  7 13  4  0
  7 18  4  0
  8 10  4  0
  8  5  4  0
  9  4  1  0
 10  3  4  0
 12 19  4  0
 13  8  4  0
 14 16  1  0
 15 19  4  0
 16  4  4  0
 16  6  4  0
 17 11  4  0
 18 14  4  0
M  END
$$$$
