
     RDKit          3D

 19 22  0  0  0  0  0  0  0  0999 V2000
   -1.1560   -0.8070  -17.4230 C   0  0  0  0  0  0  0  0  0  0  0  0
   -3.4590   -1.6850  -17.2260 C   0  0  0  0  0  0  0  0  0  0  0  0
   -2.4700   -1.0010  -17.9480 C   0  0  0  0  0  0  0  0  0  0  0  0
   -8.1860   -3.2300  -16.6060 C   0  0  0  0  0  0  0  0  0  0  0  0
   -4.7710   -1.5230  -17.9960 C   0  0  0  0  0  0  0  0  0  0  0  0
   -6.1850   -3.1120  -15.5910 N   0  0  0  0  0  0  0  0  0  0  0  0
   -6.7480   -0.8280  -19.9600 C   0  0  0  0  0  0  0  0  0  0  0  0
   -4.5280   -0.9040  -19.2780 C   0  0  0  0  0  0  0  0  0  0  0  0
   -9.1910   -3.0990  -17.3750 N   0  0  0  0  0  0  0  0  0  0  0  0
   -2.8160   -0.5860  -19.4410 S   0  0  0  0  0  0  0  0  0  0  0  0
   -7.0730   -3.8370  -14.7530 C   0  0  0  0  0  0  0  0  0  0  0  0
   -3.1690   -2.1950  -15.9780 C   0  0  0  0  0  0  0  0  0  0  0  0
   -5.3820   -0.5450  -20.1320 N   0  0  0  0  0  0  0  0  0  0  0  0
   -6.1790   -1.9330  -17.8050 C   0  0  0  0  0  0  0  0  0  0  0  0
   -0.8880   -1.3040  -16.1450 C   0  0  0  0  0  0  0  0  0  0  0  0
   -6.8380   -2.7340  -16.7110 C   0  0  0  0  0  0  0  0  0  0  0  0
   -8.2870   -3.9400  -15.4220 O   0  0  0  0  0  0  0  0  0  0  0  0
   -7.1980   -1.4940  -18.7950 C   0  0  0  0  0  0  0  0  0  0  0  0
   -1.9500   -1.9980  -15.4130 C   0  0  0  0  0  0  0  0  0  0  0  0
  1 15  4  0
  2 12  4  0
  3  1  4  0
  3  2  4  0
  4 17  4  0
  5 14  4  0
  5  2  4  0
  6 11  4  0
  7 18  4  0
  8  5  4  0
  9  4  1  0
 10  8  4  0
 10  3  4  0
 12 19  4  0
 13  7  4  0
 13  8  4  0
 14 16  1  0
 15 19  4  0
 16  4  4  0
 16  6  4  0
 17 11  4  0
 18 14  4  0
M  END
$$$$

     RDKit          3D

 19 22  0  0  0  0  0  0  0  0999 V2000
   -1.4870   -0.9780  -17.0630 C   0  0  0  0  0  0  0  0  0  0  0  0
   -3.7070   -2.0110  -16.9670 C   0  0  0  0  0  0  0  0  0  0  0  0
   -2.6900   -1.2800  -17.5900 C   0  0  0  0  0  0  0  0  0  0  0  0
   -8.2440   -3.1260  -16.3370 C   0  0  0  0  0  0  0  0  0  0  0  0
   -4.9040   -1.8380  -17.7720 C   0  0  0  0  0  0  0  0  0  0  0  0
   -6.2170   -2.9650  -15.4180 N   0  0  0  0  0  0  0  0  0  0  0  0
   -6.6370   -1.1890  -19.7870 C   0  0  0  0  0  0  0  0  0  0  0  0
   -4.5310   -1.0850  -18.9100 C   0  0  0  0  0  0  0  0  0  0  0  0
   -9.3240   -3.1650  -17.1590 C   0  0  0  0  0  0  0  0  0  0  0  0
   -3.3020   -0.8280  -18.7180 N   0  0  0  0  0  0  0  0  0  0  0  0
   -7.0480   -3.5190  -14.4980 N   0  0  0  0  0  0  0  0  0  0  0  0
   -3.2590   -2.6900  -15.8780 C   0  0  0  0  0  0  0  0  0  0  0  0
   -5.3790   -0.7310  -19.9060 C   0  0  0  0  0  0  0  0  0  0  0  0
   -6.3590   -2.1190  -17.6440 C   0  0  0  0  0  0  0  0  0  0  0  0
   -1.1410   -1.4870  -15.8210 C   0  0  0  0  0  0  0  0  0  0  0  0
   -6.8910   -2.6750  -16.5170 N   0  0  0  0  0  0  0  0  0  0  0  0
   -8.2520   -3.6630  -15.0530 N   0  0  0  0  0  0  0  0  0  0  0  0
   -7.0860   -1.9410  -18.7870 C   0  0  0  0  0  0  0  0  0  0  0  0
   -2.0650   -2.4090  -15.1730 C   0  0  0  0  0  0  0  0  0  0  0  0
  1 15  1  0
  2 12  1  0
  3  1  2  0
  3  2  1  0
  4 17  4  0
  5 14  4  0
  5  2  2  0
  6 11  4  0
  7 18  4  0
  8 10  2  0
  8  5  4  0
  9  4  1  0
 10  3  1  0
 12 19  2  0
 13  7  4  0
 13  8  4  0
 14 16  1  0
 15 19  1  0
 16  4  4  0
 16  6  4  0
 17 11  4  0
 18 14  4  0
M  END
$$$$

     RDKit          3D

 19 22  0  0  0  0  0  0  0  0999 V2000
   -1.4340   -1.2540  -17.1570 C   0  0  0  0  0  0  0  0  0  0  0  0
   -3.7770   -1.8420  -17.0600 C   0  0  0  0  0  0  0  0  0  0  0  0
   -2.6850   -1.3210  -17.7070 C   0  0  0  0  0  0  0  0  0  0  0  0
   -8.2730   -3.0830  -16.4090 N   0  0  0  0  0  0  0  0  0  0  0  0
   -4.9320   -1.6610  -17.9010 C   0  0  0  0  0  0  0  0  0  0  0  0
   -6.2820   -3.0510  -15.5210 C   0  0  0  0  0  0  0  0  0  0  0  0
   -6.6040   -0.8200  -19.8440 C   0  0  0  0  0  0  0  0  0  0  0  0
   -4.4980   -0.9920  -19.0640 C   0  0  0  0  0  0  0  0  0  0  0  0
   -9.4550   -2.6170  -17.1130 C   0  0  0  0  0  0  0  0  0  0  0  0
   -3.0640   -0.9000  -18.9910 N   0  0  0  0  0  0  0  0  0  0  0  0
   -7.1920   -3.9080  -14.7100 C   0  0  0  0  0  0  0  0  0  0  0  0
   -3.5990   -2.4160  -15.7630 C   0  0  0  0  0  0  0  0  0  0  0  0
   -5.2910   -0.6240  -20.0470 N   0  0  0  0  0  0  0  0  0  0  0  0
   -6.2890   -1.8880  -17.7260 C   0  0  0  0  0  0  0  0  0  0  0  0
   -1.2820   -1.7680  -15.8610 C   0  0  0  0  0  0  0  0  0  0  0  0
   -6.9790   -2.6180  -16.5610 C   0  0  0  0  0  0  0  0  0  0  0  0
   -8.3980   -3.8430  -15.3010 N   0  0  0  0  0  0  0  0  0  0  0  0
   -7.1450   -1.4780  -18.7770 N   0  0  0  0  0  0  0  0  0  0  0  0
   -2.3340   -2.3640  -15.2160 C   0  0  0  0  0  0  0  0  0  0  0  0
  1 15  4  0
  2 12  4  0
  3  1  4  0
  3  2  4  0
  4 17  4  0
  5  8  1  0
  5 14  1  0
  5  2  1  0
  6 11  4  0
  7 18  1  0
  8 10  2  0
  9  4  1  0
 10  3  1  0
 12 19  4  0
 13  7  2  0
 13  8  1  0
 14 16  1  0
 15 19  4  0
 16  4  4  0
 16  6  4  0
 17 11  4  0
 18 14  2  0
M  END
$$$$

     RDKit          3D

 19 22  0  0  0  0  0  0  0  0999 V2000
   -1.1920   -1.6040  -17.4010 C   0  0  0  0  0  0  0  0  0  0  0  0
   -3.7260   -1.9190  -17.1090 C   0  0  0  0  0  0  0  0  0  0  0  0
   -2.5820   -1.4710  -17.8370 C   0  0  0  0  0  0  0  0  0  0  0  0
   -8.2650   -2.9340  -16.5320 C   0  0  0  0  0  0  0  0  0  0  0  0
   -4.9030   -1.6400  -17.9450 C   0  0  0  0  0  0  0  0  0  0  0  0
   -6.2640   -2.8780  -15.5960 N   0  0  0  0  0  0  0  0  0  0  0  0
   -6.6260   -0.6880  -20.0590 C   0  0  0  0  0  0  0  0  0  0  0  0
   -4.3230   -0.9280  -19.0700 C   0  0  0  0  0  0  0  0  0  0  0  0
   -9.4260   -2.8850  -17.4940 C   0  0  0  0  0  0  0  0  0  0  0  0
   -3.0270   -0.8530  -18.9560 N   0  0  0  0  0  0  0  0  0  0  0  0
   -7.1260   -3.5150  -14.7190 N   0  0  0  0  0  0  0  0  0  0  0  0
   -3.4780   -2.4980  -15.8530 C   0  0  0  0  0  0  0  0  0  0  0  0
   -5.2550   -0.4410  -20.1520 C   0  0  0  0  0  0  0  0  0  0  0  0
   -6.3520   -1.8400  -17.8940 C   0  0  0  0  0  0  0  0  0  0  0  0
   -1.0580   -2.3120  -16.0720 C   0  0  0  0  0  0  0  0  0  0  0  0
   -6.9420   -2.5270  -16.6470 C   0  0  0  0  0  0  0  0  0  0  0  0
   -8.4170   -3.4780  -15.2470 N   0  0  0  0  0  0  0  0  0  0  0  0
   -7.2030   -1.3850  -18.9650 C   0  0  0  0  0  0  0  0  0  0  0  0
   -2.1400   -2.6670  -15.2960 C   0  0  0  0  0  0  0  0  0  0  0  0
  1 15  1  0
  2 12  1  0
  3  1  2  0
  3  2  1  0
  4 17  4  0
  5 14  4  0
  5  2  2  0
  6 11  4  0
  7 18  4  0
  8 10  2  0
  8  5  4  0
  9  4  1  0
 10  3  1  0
 12 19  2  0
 13  7  4  0
 13  8  4  0
 14 16  1  0
 15 19  1  0
 16  4  4  0
 16  6  4  0
 17 11  4  0
 18 14  4  0
M  END
$$$$

     RDKit          3D

 19 22  0  0  0  0  0  0  0  0999 V2000
   -1.3210   -1.4360  -17.2590 C   0  0  0  0  0  0  0  0  0  0  0  0
   -3.7120   -1.8770  -17.1440 C   0  0  0  0  0  0  0  0  0  0  0  0
   -2.5910   -1.3620  -17.8380 C   0  0  0  0  0  0  0  0  0  0  0  0
   -8.1880   -3.0210  -16.4040 C   0  0  0  0  0  0  0  0  0  0  0  0
   -4.9020   -1.6350  -17.9290 C   0  0  0  0  0  0  0  0  0  0  0  0
   -6.1500   -2.9610  -15.5720 N   0  0  0  0  0  0  0  0  0  0  0  0
   -6.6480   -0.8160  -19.8840 C   0  0  0  0  0  0  0  0  0  0  0  0
   -4.4570   -1.0190  -19.0810 C   0  0  0  0  0  0  0  0  0  0  0  0
   -9.3320   -3.0050  -17.2490 C   0  0  0  0  0  0  0  0  0  0  0  0
   -3.0900   -0.9210  -18.9710 N   0  0  0  0  0  0  0  0  0  0  0  0
   -7.0110   -3.7470  -14.7130 N   0  0  0  0  0  0  0  0  0  0  0  0
   -3.5330   -2.5240  -15.9140 C   0  0  0  0  0  0  0  0  0  0  0  0
   -5.2600   -0.6610  -20.1560 C   0  0  0  0  0  0  0  0  0  0  0  0
   -6.2700   -1.8900  -17.7740 C   0  0  0  0  0  0  0  0  0  0  0  0
   -1.1660   -2.0390  -16.0230 C   0  0  0  0  0  0  0  0  0  0  0  0
   -6.8800   -2.5860  -16.6410 C   0  0  0  0  0  0  0  0  0  0  0  0
   -8.1900   -3.7600  -15.2210 N   0  0  0  0  0  0  0  0  0  0  0  0
   -7.1550   -1.4100  -18.8290 C   0  0  0  0  0  0  0  0  0  0  0  0
   -2.2490   -2.6160  -15.3870 C   0  0  0  0  0  0  0  0  0  0  0  0
  1 15  1  0
  2 12  1  0
  3  1  2  0
  3  2  1  0
  4 17  4  0
  5 14  4  0
  5  2  2  0
  6 11  4  0
  7 18  4  0
  8 10  2  0
  8  5  4  0
  9  4  1  0
 10  3  1  0
 12 19  2  0
 13  7  4  0
 13  8  4  0
 14 16  1  0
 15 19  1  0
 16  4  4  0
 16  6  4  0
 17 11  4  0
 18 14  4  0
M  END
$$$$

     RDKit          3D

 19 22  0  0  0  0  0  0  0  0999 V2000
   -1.1710   -0.8540  -17.1410 C   0  0  0  0  0  0  0  0  0  0  0  0
   -3.5290   -1.6510  -17.0770 C   0  0  0  0  0  0  0  0  0  0  0  0
   -2.4570   -0.9780  -17.6830 C   0  0  0  0  0  0  0  0  0  0  0  0
   -8.1890   -3.0570  -16.3850 C   0  0  0  0  0  0  0  0  0  0  0  0
   -4.7900   -1.5360  -17.9030 C   0  0  0  0  0  0  0  0  0  0  0  0
   -6.1140   -3.2270  -15.4230 C   0  0  0  0  0  0  0  0  0  0  0  0
   -6.5480   -0.8660  -19.9650 C   0  0  0  0  0  0  0  0  0  0  0  0
   -4.2980   -0.8090  -19.0430 C   0  0  0  0  0  0  0  0  0  0  0  0
   -9.4080   -2.8840  -17.1790 C   0  0  0  0  0  0  0  0  0  0  0  0
   -2.9870   -0.5100  -18.8860 N   0  0  0  0  0  0  0  0  0  0  0  0
   -7.0480   -3.8580  -14.6220 N   0  0  0  0  0  0  0  0  0  0  0  0
   -3.1720   -2.3440  -15.7950 C   0  0  0  0  0  0  0  0  0  0  0  0
   -5.2610   -0.4700  -20.0890 C   0  0  0  0  0  0  0  0  0  0  0  0
   -6.1920   -1.9260  -17.7660 C   0  0  0  0  0  0  0  0  0  0  0  0
   -0.8750   -1.4790  -15.9760 C   0  0  0  0  0  0  0  0  0  0  0  0
   -6.7720   -2.7390  -16.5790 C   0  0  0  0  0  0  0  0  0  0  0  0
   -8.3300   -3.7800  -15.2250 N   0  0  0  0  0  0  0  0  0  0  0  0
   -7.0430   -1.5400  -18.8830 C   0  0  0  0  0  0  0  0  0  0  0  0
   -1.8860   -2.1980  -15.3280 C   0  0  0  0  0  0  0  0  0  0  0  0
  1 15  1  0
  2 12  1  0
  3  1  2  0
  3  2  1  0
  4 17  4  0
  5 14  4  0
  5  2  2  0
  6 11  4  0
  7 18  4  0
  8 10  2  0
  8  5  4  0
  9  4  1  0
 10  3  1  0
 12 19  2  0
 13  7  4  0
 13  8  4  0
 14 16  1  0
 15 19  1  0
 16  4  4  0
 16  6  4  0
 17 11  4  0
 18 14  4  0
M  END
$$$$

     RDKit          3D

 19 22  0  0  0  0  0  0  0  0999 V2000
   -1.2260   -0.6320  -16.5870 C   0  0  0  0  0  0  0  0  0  0  0  0
   -3.3650   -1.7240  -17.0090 C   0  0  0  0  0  0  0  0  0  0  0  0
   -2.3940   -0.7750  -17.4300 C   0  0  0  0  0  0  0  0  0  0  0  0
   -8.0990   -2.8730  -16.3900 C   0  0  0  0  0  0  0  0  0  0  0  0
   -4.6250   -1.5070  -17.7910 C   0  0  0  0  0  0  0  0  0  0  0  0
   -6.0230   -2.9570  -15.3850 C   0  0  0  0  0  0  0  0  0  0  0  0
   -6.3170   -0.9660  -19.9070 C   0  0  0  0  0  0  0  0  0  0  0  0
   -4.1090   -0.7960  -18.9690 C   0  0  0  0  0  0  0  0  0  0  0  0
   -9.2950   -2.7530  -17.3520 C   0  0  0  0  0  0  0  0  0  0  0  0
   -2.8600   -0.4500  -18.7050 N   0  0  0  0  0  0  0  0  0  0  0  0
   -6.9070   -3.6050  -14.5810 N   0  0  0  0  0  0  0  0  0  0  0  0
   -3.0930   -2.6300  -15.9360 C   0  0  0  0  0  0  0  0  0  0  0  0
   -5.0320   -0.5640  -19.9310 N   0  0  0  0  0  0  0  0  0  0  0  0
   -6.0540   -1.8830  -17.7410 C   0  0  0  0  0  0  0  0  0  0  0  0
   -0.9930   -1.4520  -15.5490 C   0  0  0  0  0  0  0  0  0  0  0  0
   -6.6980   -2.5680  -16.5970 C   0  0  0  0  0  0  0  0  0  0  0  0
   -8.2430   -3.5210  -15.2240 N   0  0  0  0  0  0  0  0  0  0  0  0
   -6.7720   -1.6080  -18.8400 N   0  0  0  0  0  0  0  0  0  0  0  0
   -1.8860   -2.4500  -15.1780 C   0  0  0  0  0  0  0  0  0  0  0  0
  1 15  4  0
  2 12  4  0
  3  2  4  0
  3  1  4  0
  4 17  4  0
  5 14  4  0
  5  2  4  0
  6 11  4  0
  7 18  4  0
  8 10  4  0
  8  5  1  0
  9  4  1  0
 10  3  4  0
 12 19  4  0
 13  7  4  0
 13  8  4  0
 14 16  1  0
 15 19  4  0
 16  4  4  0
 16  6  4  0
 17 11  4  0
 18 14  4  0
M  END
$$$$

     RDKit          3D

 19 22  0  0  0  0  0  0  0  0999 V2000
   -1.3650   -1.1090  -17.2570 C   0  0  0  0  0  0  0  0  0  0  0  0
   -3.7490   -1.7630  -17.1050 C   0  0  0  0  0  0  0  0  0  0  0  0
   -2.6250   -1.2340  -17.8570 C   0  0  0  0  0  0  0  0  0  0  0  0
   -8.3100   -2.7450  -16.4220 C   0  0  0  0  0  0  0  0  0  0  0  0
   -4.8980   -1.6070  -17.9870 C   0  0  0  0  0  0  0  0  0  0  0  0
   -6.2030   -2.8420  -15.6090 N   0  0  0  0  0  0  0  0  0  0  0  0
   -6.6770   -1.0260  -19.9420 C   0  0  0  0  0  0  0  0  0  0  0  0
   -4.3930   -1.0620  -19.1790 C   0  0  0  0  0  0  0  0  0  0  0  0
   -9.5340   -2.3680  -17.1890 C   0  0  0  0  0  0  0  0  0  0  0  0
   -3.0690   -0.8450  -19.0820 N   0  0  0  0  0  0  0  0  0  0  0  0
   -7.0850   -3.4670  -14.8010 N   0  0  0  0  0  0  0  0  0  0  0  0
   -3.5190   -2.3070  -15.8430 C   0  0  0  0  0  0  0  0  0  0  0  0
   -5.3350   -0.7660  -20.1190 C   0  0  0  0  0  0  0  0  0  0  0  0
   -6.2700   -1.8040  -17.8710 C   0  0  0  0  0  0  0  0  0  0  0  0
   -1.2370   -1.6470  -16.0060 C   0  0  0  0  0  0  0  0  0  0  0  0
   -6.8750   -2.4720  -16.6770 C   0  0  0  0  0  0  0  0  0  0  0  0
   -8.3740   -3.3490  -15.2570 N   0  0  0  0  0  0  0  0  0  0  0  0
   -7.1070   -1.5090  -18.8620 N   0  0  0  0  0  0  0  0  0  0  0  0
   -2.2000   -2.1660  -15.3050 C   0  0  0  0  0  0  0  0  0  0  0  0
  1 15  1  0
  2 12  1  0
  3  1  2  0
  3  2  1  0
  4 17  4  0
  5 14  4  0
  5  2  2  0
  6 11  4  0
  7 18  4  0
  8 10  2  0
  8  5  4  0
  9  4  1  0
 10  3  1  0
 12 19  2  0
 13  7  4  0
 13  8  4  0
 14 16  1  0
 15 19  1  0
 16  4  4  0
 16  6  4  0
 17 11  4  0
 18 14  4  0
M  END
$$$$

     RDKit          3D

 19 22  0  0  0  0  0  0  0  0999 V2000
   -1.3000   -1.1700  -17.5380 C   0  0  0  0  0  0  0  0  0  0  0  0
   -3.7330   -1.8350  -17.1230 C   0  0  0  0  0  0  0  0  0  0  0  0
   -2.6450   -1.3490  -17.9370 C   0  0  0  0  0  0  0  0  0  0  0  0
   -8.1140   -3.1630  -16.5810 C   0  0  0  0  0  0  0  0  0  0  0  0
   -4.8470   -1.6350  -17.8700 N   0  0  0  0  0  0  0  0  0  0  0  0
   -6.0960   -3.2910  -15.5450 C   0  0  0  0  0  0  0  0  0  0  0  0
   -6.6470   -0.9970  -19.8880 C   0  0  0  0  0  0  0  0  0  0  0  0
   -4.5150   -0.9240  -18.9740 C   0  0  0  0  0  0  0  0  0  0  0  0
   -9.2840   -2.8730  -17.3380 C   0  0  0  0  0  0  0  0  0  0  0  0
   -3.2430   -0.7960  -18.9790 N   0  0  0  0  0  0  0  0  0  0  0  0
   -7.0550   -3.9520  -14.8090 N   0  0  0  0  0  0  0  0  0  0  0  0
   -3.2620   -2.2500  -15.8690 C   0  0  0  0  0  0  0  0  0  0  0  0
   -5.3270   -0.6710  -19.9750 C   0  0  0  0  0  0  0  0  0  0  0  0
   -6.1780   -1.9990  -17.7200 C   0  0  0  0  0  0  0  0  0  0  0  0
   -0.9480   -1.6240  -16.3060 C   0  0  0  0  0  0  0  0  0  0  0  0
   -6.6800   -2.7380  -16.6620 C   0  0  0  0  0  0  0  0  0  0  0  0
   -8.2980   -3.8760  -15.3880 N   0  0  0  0  0  0  0  0  0  0  0  0
   -7.0680   -1.5950  -18.7120 C   0  0  0  0  0  0  0  0  0  0  0  0
   -1.9260   -2.1690  -15.4930 C   0  0  0  0  0  0  0  0  0  0  0  0
  1 15  4  0
  2 12  4  0
  3  1  4  0
  3  2  4  0
  4 17  4  0
  5 14  4  0
  5  2  4  0
  6 11  4  0
  7 18  4  0
  8  5  4  0
  9  4  1  0
 10  8  4  0
 10  3  4  0
 12 19  4  0
 13  7  4  0
 13  8  4  0
 14 16  1  0
 15 19  4  0
 16  4  4  0
 16  6  4  0
 17 11  4  0
 18 14  4  0
M  END
$$$$

     RDKit          3D

 19 22  0  0  0  0  0  0  0  0999 V2000
   -1.4540   -0.9790  -16.9520 C   0  0  0  0  0  0  0  0  0  0  0  0
   -3.7290   -2.0930  -17.0070 C   0  0  0  0  0  0  0  0  0  0  0  0
   -2.6920   -1.3360  -17.6000 C   0  0  0  0  0  0  0  0  0  0  0  0
   -8.2630   -3.1510  -16.4550 C   0  0  0  0  0  0  0  0  0  0  0  0
   -4.9540   -1.8310  -17.8380 C   0  0  0  0  0  0  0  0  0  0  0  0
   -6.2230   -2.9530  -15.4440 N   0  0  0  0  0  0  0  0  0  0  0  0
   -6.6770   -1.0350  -19.8890 C   0  0  0  0  0  0  0  0  0  0  0  0
   -4.4480   -1.1270  -18.9720 C   0  0  0  0  0  0  0  0  0  0  0  0
   -9.4190   -3.1060  -17.4130 C   0  0  0  0  0  0  0  0  0  0  0  0
   -3.1540   -0.9290  -18.7530 N   0  0  0  0  0  0  0  0  0  0  0  0
   -7.1120   -3.6760  -14.6490 N   0  0  0  0  0  0  0  0  0  0  0  0
   -3.4570   -2.9760  -15.9280 C   0  0  0  0  0  0  0  0  0  0  0  0
   -5.2820   -0.7920  -20.0290 C   0  0  0  0  0  0  0  0  0  0  0  0
   -6.3820   -2.0240  -17.7080 C   0  0  0  0  0  0  0  0  0  0  0  0
   -1.0560   -2.0050  -15.8450 C   0  0  0  0  0  0  0  0  0  0  0  0
   -6.9510   -2.6770  -16.5660 C   0  0  0  0  0  0  0  0  0  0  0  0
   -8.2780   -3.7720  -15.2470 N   0  0  0  0  0  0  0  0  0  0  0  0
   -7.1940   -1.6150  -18.7500 C   0  0  0  0  0  0  0  0  0  0  0  0
   -2.3200   -2.4860  -15.0350 C   0  0  0  0  0  0  0  0  0  0  0  0
  1 15  1  0
  2 12  1  0
  3  2  1  0
  3  1  1  0
  4 17  4  0
  5 14  4  0
  5  2  2  0
  6 11  4  0
  7 18  4  0
  8 10  2  0
  8  5  4  0
  9  4  1  0
 10  3  1  0
 12 19  1  0
 13  7  4  0
 13  8  4  0
 14 16  1  0
 15 19  1  0
 16  4  4  0
 16  6  4  0
 17 11  4  0
 18 14  4  0
M  END
$$$$

     RDKit          3D

 19 22  0  0  0  0  0  0  0  0999 V2000
   -1.3710   -1.2470  -17.1270 C   0  0  0  0  0  0  0  0  0  0  0  0
   -3.7550   -1.8960  -17.0960 C   0  0  0  0  0  0  0  0  0  0  0  0
   -2.6440   -1.3350  -17.7690 C   0  0  0  0  0  0  0  0  0  0  0  0
   -8.3350   -2.9810  -16.4670 C   0  0  0  0  0  0  0  0  0  0  0  0
   -4.9910   -1.6600  -17.9310 C   0  0  0  0  0  0  0  0  0  0  0  0
   -6.3700   -2.9330  -15.6470 N   0  0  0  0  0  0  0  0  0  0  0  0
   -6.6310   -0.7190  -20.0450 C   0  0  0  0  0  0  0  0  0  0  0  0
   -4.4420   -1.0160  -19.1150 C   0  0  0  0  0  0  0  0  0  0  0  0
   -9.4440   -2.9030  -17.1500 O   0  0  0  0  0  0  0  0  0  0  0  0
   -3.0480   -0.8880  -18.9590 N   0  0  0  0  0  0  0  0  0  0  0  0
   -7.2310   -3.6260  -14.7640 N   0  0  0  0  0  0  0  0  0  0  0  0
   -3.5120   -2.4890  -15.8310 C   0  0  0  0  0  0  0  0  0  0  0  0
   -5.2490   -0.5540  -20.1760 C   0  0  0  0  0  0  0  0  0  0  0  0
   -6.4100   -1.8160  -17.8670 C   0  0  0  0  0  0  0  0  0  0  0  0
   -1.1730   -1.8510  -15.8320 C   0  0  0  0  0  0  0  0  0  0  0  0
   -7.0750   -2.5120  -16.6880 C   0  0  0  0  0  0  0  0  0  0  0  0
   -8.4630   -3.6320  -15.3590 O   0  0  0  0  0  0  0  0  0  0  0  0
   -7.2270   -1.3170  -18.9110 C   0  0  0  0  0  0  0  0  0  0  0  0
   -2.2530   -2.4290  -15.1830 C   0  0  0  0  0  0  0  0  0  0  0  0
  1 15  1  0
  2 12  1  0
  3  1  2  0
  3  2  1  0
  4 17  4  0
  5 14  4  0
  5  2  2  0
  6 11  4  0
  7 18  4  0
  8 10  2  0
  8  5  4  0
  9  4  2  0
 10  3  1  0
 12 19  2  0
 13  7  4  0
 13  8  4  0
 14 16  1  0
 15 19  1  0
 16  4  4  0
 16  6  4  0
 17 11  4  0
 18 14  4  0
M  END
$$$$

     RDKit          3D

 19 22  0  0  0  0  0  0  0  0999 V2000
   -1.2810   -1.5070  -17.3180 C   0  0  0  0  0  0  0  0  0  0  0  0
   -3.6740   -1.8150  -17.1020 C   0  0  0  0  0  0  0  0  0  0  0  0
   -2.5920   -1.4060  -17.7790 C   0  0  0  0  0  0  0  0  0  0  0  0
   -8.2440   -2.8220  -16.5860 C   0  0  0  0  0  0  0  0  0  0  0  0
   -4.8530   -1.6300  -17.9070 N   0  0  0  0  0  0  0  0  0  0  0  0
   -6.2190   -3.0220  -15.5450 C   0  0  0  0  0  0  0  0  0  0  0  0
   -6.4970   -0.7150  -19.9750 N   0  0  0  0  0  0  0  0  0  0  0  0
   -4.3710   -1.0820  -19.0860 C   0  0  0  0  0  0  0  0  0  0  0  0
   -9.4570   -2.4680  -17.3860 C   0  0  0  0  0  0  0  0  0  0  0  0
   -3.0460   -0.9610  -19.0150 N   0  0  0  0  0  0  0  0  0  0  0  0
   -7.1750   -3.6380  -14.8250 C   0  0  0  0  0  0  0  0  0  0  0  0
   -3.5400   -2.4250  -15.8110 C   0  0  0  0  0  0  0  0  0  0  0  0
   -5.1600   -0.6160  -20.0680 C   0  0  0  0  0  0  0  0  0  0  0  0
   -6.2590   -1.7990  -17.8180 C   0  0  0  0  0  0  0  0  0  0  0  0
   -1.1140   -2.0840  -16.0800 C   0  0  0  0  0  0  0  0  0  0  0  0
   -6.9150   -2.4730  -16.6640 C   0  0  0  0  0  0  0  0  0  0  0  0
   -8.4090   -3.4580  -15.4390 N   0  0  0  0  0  0  0  0  0  0  0  0
   -7.0160   -1.3070  -18.8460 C   0  0  0  0  0  0  0  0  0  0  0  0
   -2.2080   -2.5670  -15.3530 C   0  0  0  0  0  0  0  0  0  0  0  0
  1 15  4  0
  2 12  4  0
  3  1  4  0
  3  2  4  0
  4 17  4  0
  5 14  4  0
  5  2  4  0
  6 11  4  0
  7 18  4  0
  8 10  4  0
  8  5  4  0
  9  4  1  0
 10  3  4  0
 12 19  4  0
 13  7  4  0
 13  8  4  0
 14 16  1  0
 15 19  4  0
 16  4  4  0
 16  6  4  0
 17 11  4  0
 18 14  4  0
M  END
$$$$

     RDKit          3D

 19 22  0  0  0  0  0  0  0  0999 V2000
   -1.0330   -1.6160  -17.2790 C   0  0  0  0  0  0  0  0  0  0  0  0
   -3.4740   -1.8880  -17.0610 C   0  0  0  0  0  0  0  0  0  0  0  0
   -2.3670   -1.3810  -17.8050 C   0  0  0  0  0  0  0  0  0  0  0  0
   -8.2520   -2.9560  -16.4930 C   0  0  0  0  0  0  0  0  0  0  0  0
   -4.7070   -1.6330  -17.8970 C   0  0  0  0  0  0  0  0  0  0  0  0
   -6.1470   -3.2200  -15.7020 N   0  0  0  0  0  0  0  0  0  0  0  0
   -6.4590   -0.6500  -19.8940 C   0  0  0  0  0  0  0  0  0  0  0  0
   -4.2150   -1.1070  -19.1070 C   0  0  0  0  0  0  0  0  0  0  0  0
   -9.4290   -2.6450  -17.3320 C   0  0  0  0  0  0  0  0  0  0  0  0
   -2.8130   -1.0280  -19.0510 N   0  0  0  0  0  0  0  0  0  0  0  0
   -7.1130   -3.8590  -14.9580 N   0  0  0  0  0  0  0  0  0  0  0  0
   -3.3630   -2.3930  -15.7460 C   0  0  0  0  0  0  0  0  0  0  0  0
   -5.0530   -0.5230  -20.1270 C   0  0  0  0  0  0  0  0  0  0  0  0
   -6.1520   -1.8310  -17.7740 C   0  0  0  0  0  0  0  0  0  0  0  0
   -0.9350   -2.1750  -16.0240 C   0  0  0  0  0  0  0  0  0  0  0  0
   -6.8250   -2.5940  -16.7200 C   0  0  0  0  0  0  0  0  0  0  0  0
   -8.3630   -3.7240  -15.3730 N   0  0  0  0  0  0  0  0  0  0  0  0
   -6.9840   -1.2380  -18.7480 C   0  0  0  0  0  0  0  0  0  0  0  0
   -2.0930   -2.5330  -15.2470 C   0  0  0  0  0  0  0  0  0  0  0  0
  1 15  1  0
  2 12  1  0
  3  1  2  0
  3  2  1  0
  4 17  4  0
  5 14  4  0
  5  2  2  0
  6 11  4  0
  7 18  4  0
  8 10  2  0
  8  5  4  0
  9  4  1  0
 10  3  1  0
 12 19  2  0
 13  7  4  0
 13  8  4  0
 14 16  1  0
 15 19  1  0
 16  4  4  0
 16  6  4  0
 17 11  4  0
 18 14  4  0
M  END
$$$$

     RDKit          3D

 19 22  0  0  0  0  0  0  0  0999 V2000
   -1.2440   -0.5900  -17.1370 C   0  0  0  0  0  0  0  0  0  0  0  0
   -3.5360   -1.6800  -17.1260 C   0  0  0  0  0  0  0  0  0  0  0  0
   -2.4220   -0.9410  -17.8160 C   0  0  0  0  0  0  0  0  0  0  0  0
   -8.1630   -2.8700  -16.4710 C   0  0  0  0  0  0  0  0  0  0  0  0
   -4.7680   -1.5370  -18.0040 C   0  0  0  0  0  0  0  0  0  0  0  0
   -6.1340   -3.2470  -15.6830 C   0  0  0  0  0  0  0  0  0  0  0  0
   -6.6590   -0.7740  -20.0560 C   0  0  0  0  0  0  0  0  0  0  0  0
   -4.2780   -0.8300  -19.2460 C   0  0  0  0  0  0  0  0  0  0  0  0
   -9.5460   -2.4940  -17.3500 S   0  0  0  0  0  0  0  0  0  0  0  0
   -2.8200   -0.5590  -19.1320 N   0  0  0  0  0  0  0  0  0  0  0  0
   -7.0830   -3.9380  -14.8800 N   0  0  0  0  0  0  0  0  0  0  0  0
   -3.2250   -2.3510  -15.8530 C   0  0  0  0  0  0  0  0  0  0  0  0
   -5.2270   -0.4340  -20.3110 C   0  0  0  0  0  0  0  0  0  0  0  0
   -6.1830   -1.8550  -17.7590 C   0  0  0  0  0  0  0  0  0  0  0  0
   -1.0100   -1.4490  -15.8160 C   0  0  0  0  0  0  0  0  0  0  0  0
   -6.7340   -2.5950  -16.7110 C   0  0  0  0  0  0  0  0  0  0  0  0
   -8.2590   -3.6470  -15.3580 N   0  0  0  0  0  0  0  0  0  0  0  0
   -7.0110   -1.3790  -18.8170 C   0  0  0  0  0  0  0  0  0  0  0  0
   -1.9790   -2.1350  -15.2000 C   0  0  0  0  0  0  0  0  0  0  0  0
  1 15  1  0
  2 12  1  0
  3  1  1  0
  3  2  1  0
  4 17  1  0
  5 14  4  0
  5  2  2  0
  6 11  1  0
  7 18  4  0
  8 10  2  0
  8  5  4  0
  9  4  2  0
 10  3  1  0
 12 19  1  0
 13  7  4  0
 13  8  4  0
 14 16  1  0
 15 19  2  0
 16  4  1  0
 16  6  2  0
 17 11  2  0
 18 14  4  0
M  END
$$$$

     RDKit          3D

 19 22  0  0  0  0  0  0  0  0999 V2000
   -1.2960   -0.9300  -16.9970 C   0  0  0  0  0  0  0  0  0  0  0  0
   -3.5950   -1.8580  -16.9330 C   0  0  0  0  0  0  0  0  0  0  0  0
   -2.4970   -1.1090  -17.5730 C   0  0  0  0  0  0  0  0  0  0  0  0
   -8.1960   -3.1530  -16.2830 C   0  0  0  0  0  0  0  0  0  0  0  0
   -4.8330   -1.6360  -17.7010 C   0  0  0  0  0  0  0  0  0  0  0  0
   -6.2530   -3.1900  -15.2430 C   0  0  0  0  0  0  0  0  0  0  0  0
   -6.4750   -0.9880  -19.7950 C   0  0  0  0  0  0  0  0  0  0  0  0
   -4.4080   -0.8600  -18.8620 C   0  0  0  0  0  0  0  0  0  0  0  0
   -9.3770   -2.9610  -17.1740 C   0  0  0  0  0  0  0  0  0  0  0  0
   -3.0170   -0.5660  -18.7260 N   0  0  0  0  0  0  0  0  0  0  0  0
   -7.0640   -3.9000  -14.4440 N   0  0  0  0  0  0  0  0  0  0  0  0
   -3.2620   -2.5990  -15.7380 C   0  0  0  0  0  0  0  0  0  0  0  0
   -5.2730   -0.5270  -19.9380 N   0  0  0  0  0  0  0  0  0  0  0  0
   -6.2390   -2.0480  -17.6200 C   0  0  0  0  0  0  0  0  0  0  0  0
   -0.9730   -1.7050  -15.8430 C   0  0  0  0  0  0  0  0  0  0  0  0
   -6.8000   -2.7220  -16.4140 C   0  0  0  0  0  0  0  0  0  0  0  0
   -8.2140   -3.9410  -15.0980 N   0  0  0  0  0  0  0  0  0  0  0  0
   -6.9180   -1.6600  -18.6910 N   0  0  0  0  0  0  0  0  0  0  0  0
   -1.9510   -2.5230  -15.2170 C   0  0  0  0  0  0  0  0  0  0  0  0
  1 15  4  0
  2 12  4  0
  3  1  4  0
  3  2  4  0
  4 17  4  0
  5  8  1  0
  5 14  1  0
  5  2  1  0
  6 11  4  0
  7 18  1  0
  8 10  2  0
  9  4  1  0
 10  3  1  0
 12 19  4  0
 13  7  2  0
 13  8  1  0
 14 16  1  0
 15 19  4  0
 16  4  4  0
 16  6  4  0
 17 11  4  0
 18 14  2  0
M  END
$$$$

     RDKit          3D

 19 22  0  0  0  0  0  0  0  0999 V2000
   -1.3900   -1.2030  -17.2740 C   0  0  0  0  0  0  0  0  0  0  0  0
   -3.7140   -1.7140  -17.1410 C   0  0  0  0  0  0  0  0  0  0  0  0
   -2.5990   -1.2750  -17.8180 C   0  0  0  0  0  0  0  0  0  0  0  0
   -8.2420   -2.6180  -16.4970 C   0  0  0  0  0  0  0  0  0  0  0  0
   -4.8610   -1.5360  -17.9990 C   0  0  0  0  0  0  0  0  0  0  0  0
   -6.1640   -2.9300  -15.7150 N   0  0  0  0  0  0  0  0  0  0  0  0
   -6.5080   -0.7840  -20.1000 C   0  0  0  0  0  0  0  0  0  0  0  0
   -4.3210   -0.9550  -19.1670 C   0  0  0  0  0  0  0  0  0  0  0  0
   -9.4860   -2.3240  -17.2300 C   0  0  0  0  0  0  0  0  0  0  0  0
   -2.9680   -0.8650  -19.0930 N   0  0  0  0  0  0  0  0  0  0  0  0
   -7.0120   -3.5180  -14.7270 N   0  0  0  0  0  0  0  0  0  0  0  0
   -3.5140   -2.3300  -15.9190 C   0  0  0  0  0  0  0  0  0  0  0  0
   -5.1370   -0.5920  -20.2430 C   0  0  0  0  0  0  0  0  0  0  0  0
   -6.2480   -1.7020  -17.9400 C   0  0  0  0  0  0  0  0  0  0  0  0
   -1.2000   -1.7140  -16.0090 C   0  0  0  0  0  0  0  0  0  0  0  0
   -6.8470   -2.3670  -16.6960 C   0  0  0  0  0  0  0  0  0  0  0  0
   -8.3290   -3.2880  -15.2990 N   0  0  0  0  0  0  0  0  0  0  0  0
   -7.0530   -1.3500  -18.9900 C   0  0  0  0  0  0  0  0  0  0  0  0
   -2.3000   -2.2640  -15.3460 C   0  0  0  0  0  0  0  0  0  0  0  0
  1 15  1  0
  2 12  1  0
  3  1  2  0
  3  2  1  0
  4 17  4  0
  5 14  4  0
  5  2  2  0
  6 11  4  0
  7 18  4  0
  8 10  2  0
  8  5  4  0
  9  4  1  0
 10  3  1  0
 12 19  2  0
 13  7  4  0
 13  8  4  0
 14 16  1  0
 15 19  1  0
 16  4  4  0
 16  6  4  0
 17 11  4  0
 18 14  4  0
M  END
$$$$

     RDKit          3D

 19 22  0  0  0  0  0  0  0  0999 V2000
   -1.1790   -1.1090  -17.5860 C   0  0  0  0  0  0  0  0  0  0  0  0
   -3.5440   -1.8230  -17.1700 C   0  0  0  0  0  0  0  0  0  0  0  0
   -2.4960   -1.1510  -17.9710 C   0  0  0  0  0  0  0  0  0  0  0  0
   -8.1890   -3.2020  -16.5610 C   0  0  0  0  0  0  0  0  0  0  0  0
   -4.8070   -1.6360  -17.9560 C   0  0  0  0  0  0  0  0  0  0  0  0
   -6.1850   -3.1020  -15.3740 C   0  0  0  0  0  0  0  0  0  0  0  0
   -6.7090   -0.9380  -20.0060 C   0  0  0  0  0  0  0  0  0  0  0  0
   -4.3950   -0.9980  -19.1590 C   0  0  0  0  0  0  0  0  0  0  0  0
   -9.1690   -3.2010  -17.4500 N   0  0  0  0  0  0  0  0  0  0  0  0
   -3.0410   -0.7820  -19.1620 N   0  0  0  0  0  0  0  0  0  0  0  0
   -7.1430   -3.7390  -14.5760 N   0  0  0  0  0  0  0  0  0  0  0  0
   -3.2210   -2.2140  -15.8340 C   0  0  0  0  0  0  0  0  0  0  0  0
   -5.4160   -0.5980  -20.2270 C   0  0  0  0  0  0  0  0  0  0  0  0
   -6.2490   -2.0210  -17.8610 C   0  0  0  0  0  0  0  0  0  0  0  0
   -0.8540   -1.5960  -16.3080 C   0  0  0  0  0  0  0  0  0  0  0  0
   -6.8100   -2.6790  -16.6580 C   0  0  0  0  0  0  0  0  0  0  0  0
   -8.3700   -3.7550  -15.2630 N   0  0  0  0  0  0  0  0  0  0  0  0
   -7.1390   -1.6390  -18.9190 C   0  0  0  0  0  0  0  0  0  0  0  0
   -1.8470   -2.1160  -15.4290 C   0  0  0  0  0  0  0  0  0  0  0  0
  1 15  1  0
  2 12  1  0
  3  1  2  0
  3  2  1  0
  4 17  4  0
  5 14  4  0
  5  2  2  0
  6 11  4  0
  7 18  4  0
  8  5  4  0
  9  4  1  0
 10  8  2  0
 10  3  1  0
 12 19  2  0
 13  7  4  0
 13  8  4  0
 14 16  1  0
 15 19  1  0
 16  4  4  0
 16  6  4  0
 17 11  4  0
 18 14  4  0
M  END
$$$$

     RDKit          3D

 19 22  0  0  0  0  0  0  0  0999 V2000
   -1.3330   -1.0260  -16.8290 C   0  0  0  0  0  0  0  0  0  0  0  0
   -3.6510   -2.0030  -17.0510 C   0  0  0  0  0  0  0  0  0  0  0  0
   -2.6550   -1.2500  -17.5690 C   0  0  0  0  0  0  0  0  0  0  0  0
   -8.2810   -2.9310  -16.3480 C   0  0  0  0  0  0  0  0  0  0  0  0
   -4.7520   -1.7650  -17.8630 C   0  0  0  0  0  0  0  0  0  0  0  0
   -6.1860   -3.1030  -15.3850 C   0  0  0  0  0  0  0  0  0  0  0  0
   -6.5580   -0.8780  -19.8610 C   0  0  0  0  0  0  0  0  0  0  0  0
   -4.3370   -0.9660  -18.9570 C   0  0  0  0  0  0  0  0  0  0  0  0
   -9.2990   -2.5940  -17.0350 O   0  0  0  0  0  0  0  0  0  0  0  0
   -2.9580   -0.7920  -18.7290 N   0  0  0  0  0  0  0  0  0  0  0  0
   -7.1620   -3.8720  -14.6690 C   0  0  0  0  0  0  0  0  0  0  0  0
   -3.5840   -2.7420  -15.8100 C   0  0  0  0  0  0  0  0  0  0  0  0
   -5.1670   -0.5610  -19.9580 C   0  0  0  0  0  0  0  0  0  0  0  0
   -6.1620   -2.0640  -17.7400 C   0  0  0  0  0  0  0  0  0  0  0  0
   -1.3150   -1.7990  -15.5160 C   0  0  0  0  0  0  0  0  0  0  0  0
   -6.8480   -2.6810  -16.5270 C   0  0  0  0  0  0  0  0  0  0  0  0
   -8.4540   -3.7260  -15.2250 N   0  0  0  0  0  0  0  0  0  0  0  0
   -6.9980   -1.5900  -18.7650 C   0  0  0  0  0  0  0  0  0  0  0  0
   -2.5360   -2.1420  -14.9770 C   0  0  0  0  0  0  0  0  0  0  0  0
  1 15  1  0
  2 12  1  0
  3  2  4  0
  3  1  1  0
  4 17  1  0
  5 14  4  0
  5  2  4  0
  6 11  1  0
  7 18  4  0
  8 10  4  0
  8  5  4  0
  9  4  2  0
 10  3  4  0
 12 19  1  0
 13  7  4  0
 13  8  4  0
 15 19  1  0
 16 14  1  0
 16  4  1  0
 16  6  1  0
 17 11  1  0
 18 14  4  0
M  END
$$$$

     RDKit          3D

 19 22  0  0  0  0  0  0  0  0999 V2000
   -1.3100   -1.3860  -17.3650 C   0  0  0  0  0  0  0  0  0  0  0  0
   -3.6440   -1.8950  -17.0770 C   0  0  0  0  0  0  0  0  0  0  0  0
   -2.5540   -1.3590  -17.8410 C   0  0  0  0  0  0  0  0  0  0  0  0
   -8.3260   -2.7390  -16.4790 C   0  0  0  0  0  0  0  0  0  0  0  0
   -4.8310   -1.7120  -17.8920 C   0  0  0  0  0  0  0  0  0  0  0  0
   -6.2370   -3.1540  -15.6600 N   0  0  0  0  0  0  0  0  0  0  0  0
   -6.5680   -0.7360  -19.9350 C   0  0  0  0  0  0  0  0  0  0  0  0
   -4.3920   -0.9760  -19.0880 C   0  0  0  0  0  0  0  0  0  0  0  0
   -9.4370   -2.4410  -17.2430 C   0  0  0  0  0  0  0  0  0  0  0  0
   -3.0690   -0.8870  -18.9860 N   0  0  0  0  0  0  0  0  0  0  0  0
   -7.1570   -3.6280  -14.8310 N   0  0  0  0  0  0  0  0  0  0  0  0
   -3.4060   -2.3950  -15.8340 C   0  0  0  0  0  0  0  0  0  0  0  0
   -5.2850   -0.5620  -20.0380 C   0  0  0  0  0  0  0  0  0  0  0  0
   -6.2060   -1.8960  -17.8180 C   0  0  0  0  0  0  0  0  0  0  0  0
   -1.0360   -1.8490  -16.0370 C   0  0  0  0  0  0  0  0  0  0  0  0
   -6.9020   -2.6270  -16.7200 C   0  0  0  0  0  0  0  0  0  0  0  0
   -8.3360   -3.3800  -15.2760 N   0  0  0  0  0  0  0  0  0  0  0  0
   -7.0220   -1.4580  -18.8170 C   0  0  0  0  0  0  0  0  0  0  0  0
   -2.0440   -2.3900  -15.3400 C   0  0  0  0  0  0  0  0  0  0  0  0
  1 15  1  0
  2 12  1  0
  3  1  2  0
  3  2  1  0
  4 17  4  0
  5 14  4  0
  5  2  2  0
  6 11  4  0
  7 18  4  0
  8 10  2  0
  8  5  4  0
  9  4  1  0
 10  3  1  0
 12 19  2  0
 13  7  4  0
 13  8  4  0
 14 16  1  0
 15 19  1  0
 16  4  4  0
 16  6  4  0
 17 11  4  0
 18 14  4  0
M  END
$$$$

     RDKit          3D

 19 22  0  0  0  0  0  0  0  0999 V2000
   -1.3060   -1.4310  -17.3200 C   0  0  0  0  0  0  0  0  0  0  0  0
   -3.7910   -1.9570  -17.1580 C   0  0  0  0  0  0  0  0  0  0  0  0
   -2.6220   -1.4260  -17.8420 C   0  0  0  0  0  0  0  0  0  0  0  0
   -8.3100   -3.0480  -16.6170 C   0  0  0  0  0  0  0  0  0  0  0  0
   -5.0260   -1.7060  -17.9090 C   0  0  0  0  0  0  0  0  0  0  0  0
   -6.4000   -3.0000  -15.5430 N   0  0  0  0  0  0  0  0  0  0  0  0
   -6.7740   -0.7350  -19.7380 N   0  0  0  0  0  0  0  0  0  0  0  0
   -4.5070   -1.0050  -19.0780 C   0  0  0  0  0  0  0  0  0  0  0  0
   -9.2770   -3.0490  -17.6190 N   0  0  0  0  0  0  0  0  0  0  0  0
   -3.1250   -0.8640  -19.0470 N   0  0  0  0  0  0  0  0  0  0  0  0
   -7.3130   -3.4790  -14.7610 N   0  0  0  0  0  0  0  0  0  0  0  0
   -3.5010   -2.7120  -15.9720 C   0  0  0  0  0  0  0  0  0  0  0  0
   -5.4140   -0.5260  -19.9740 C   0  0  0  0  0  0  0  0  0  0  0  0
   -6.2940   -1.9330  -17.7570 C   0  0  0  0  0  0  0  0  0  0  0  0
   -1.1370   -2.0800  -16.0850 C   0  0  0  0  0  0  0  0  0  0  0  0
   -6.9490   -2.5540  -16.7040 C   0  0  0  0  0  0  0  0  0  0  0  0
   -8.4690   -3.5620  -15.3820 N   0  0  0  0  0  0  0  0  0  0  0  0
   -7.1280   -1.4700  -18.7560 C   0  0  0  0  0  0  0  0  0  0  0  0
   -2.2370   -2.7180  -15.5080 C   0  0  0  0  0  0  0  0  0  0  0  0
  1 15  1  0
  2 12  1  0
  3  1  2  0
  3  2  1  0
  4 17  4  0
  5 14  4  0
  5  2  2  0
  6 11  4  0
  7 18  4  0
  8 10  2  0
  8  5  4  0
  9  4  1  0
 10  3  1  0
 12 19  2  0
 13  7  4  0
 13  8  4  0
 14 16  1  0
 15 19  1  0
 16  4  4  0
 16  6  4  0
 17 11  4  0
 18 14  4  0
M  END
$$$$

     RDKit          3D

 19 22  0  0  0  0  0  0  0  0999 V2000
   -1.0810   -1.7380  -17.1350 C   0  0  0  0  0  0  0  0  0  0  0  0
   -3.5440   -1.7950  -16.9740 C   0  0  0  0  0  0  0  0  0  0  0  0
   -2.3630   -1.5480  -17.6480 C   0  0  0  0  0  0  0  0  0  0  0  0
   -8.0710   -2.9160  -16.4890 C   0  0  0  0  0  0  0  0  0  0  0  0
   -4.7040   -1.5810  -17.8280 C   0  0  0  0  0  0  0  0  0  0  0  0
   -6.0740   -2.9800  -15.6410 N   0  0  0  0  0  0  0  0  0  0  0  0
   -6.3390   -0.7580  -19.8880 C   0  0  0  0  0  0  0  0  0  0  0  0
   -4.0900   -0.9960  -18.9980 C   0  0  0  0  0  0  0  0  0  0  0  0
   -9.3000   -2.5310  -17.2300 C   0  0  0  0  0  0  0  0  0  0  0  0
   -2.7410   -0.9580  -18.8170 N   0  0  0  0  0  0  0  0  0  0  0  0
   -6.9260   -3.7670  -14.8870 N   0  0  0  0  0  0  0  0  0  0  0  0
   -3.3570   -2.3540  -15.6750 C   0  0  0  0  0  0  0  0  0  0  0  0
   -4.9440   -0.5690  -20.0490 C   0  0  0  0  0  0  0  0  0  0  0  0
   -6.0900   -1.7860  -17.6780 C   0  0  0  0  0  0  0  0  0  0  0  0
   -0.9380   -2.1200  -15.8420 C   0  0  0  0  0  0  0  0  0  0  0  0
   -6.7240   -2.5180  -16.6610 C   0  0  0  0  0  0  0  0  0  0  0  0
   -8.1310   -3.6400  -15.3960 N   0  0  0  0  0  0  0  0  0  0  0  0
   -6.8910   -1.2880  -18.7890 C   0  0  0  0  0  0  0  0  0  0  0  0
   -2.1020   -2.4490  -15.0680 C   0  0  0  0  0  0  0  0  0  0  0  0
  1 15  1  0
  2 12  1  0
  3  1  2  0
  3  2  1  0
  4 17  4  0
  5 14  4  0
  5  2  2  0
  6 11  4  0
  7 18  4  0
  8 10  2  0
  8  5  4  0
  9  4  1  0
 10  3  1  0
 12 19  2  0
 13  7  4  0
 13  8  4  0
 14 16  1  0
 15 19  1  0
 16  4  4  0
 16  6  4  0
 17 11  4  0
 18 14  4  0
M  END
$$$$

     RDKit          3D

 19 22  0  0  0  0  0  0  0  0999 V2000
   -1.3760   -0.7440  -17.0010 C   0  0  0  0  0  0  0  0  0  0  0  0
   -3.6110   -1.7830  -17.0220 C   0  0  0  0  0  0  0  0  0  0  0  0
   -2.6450   -0.9790  -17.6010 C   0  0  0  0  0  0  0  0  0  0  0  0
   -8.1970   -2.9430  -16.4060 C   0  0  0  0  0  0  0  0  0  0  0  0
   -4.8300   -1.5220  -17.8380 C   0  0  0  0  0  0  0  0  0  0  0  0
   -6.0760   -3.2520  -15.5580 C   0  0  0  0  0  0  0  0  0  0  0  0
   -6.7030   -0.7860  -19.7990 N   0  0  0  0  0  0  0  0  0  0  0  0
   -4.4710   -0.7360  -18.8980 C   0  0  0  0  0  0  0  0  0  0  0  0
   -9.1690   -2.6250  -17.0080 O   0  0  0  0  0  0  0  0  0  0  0  0
   -3.1240   -0.4240  -18.7500 N   0  0  0  0  0  0  0  0  0  0  0  0
   -6.9640   -3.8410  -14.6880 N   0  0  0  0  0  0  0  0  0  0  0  0
   -3.3020   -2.5060  -15.9120 C   0  0  0  0  0  0  0  0  0  0  0  0
   -5.4490   -0.4290  -19.8430 C   0  0  0  0  0  0  0  0  0  0  0  0
   -6.2320   -1.9200  -17.7040 C   0  0  0  0  0  0  0  0  0  0  0  0
   -1.0880   -1.3810  -15.9150 C   0  0  0  0  0  0  0  0  0  0  0  0
   -6.7570   -2.6910  -16.6110 C   0  0  0  0  0  0  0  0  0  0  0  0
   -8.2530   -3.6850  -15.2480 N   0  0  0  0  0  0  0  0  0  0  0  0
   -7.1310   -1.4640  -18.7420 C   0  0  0  0  0  0  0  0  0  0  0  0
   -1.9980   -2.3000  -15.3290 C   0  0  0  0  0  0  0  0  0  0  0  0
  1 15  1  0
  2 12  1  0
  3  2  1  0
  3  1  2  0
  4 17  1  0
  5 14  4  0
  5  2  2  0
  6 11  2  0
  7 18  4  0
  8 10  2  0
  8  5  4  0
  9  4  2  0
 10  3  1  0
 12 19  2  0
 13  7  4  0
 13  8  4  0
 15 19  1  0
 16 14  1  0
 16  4  1  0
 16  6  1  0
 17 11  1  0
 18 14  4  0
M  END
$$$$

     RDKit          3D

 19 22  0  0  0  0  0  0  0  0999 V2000
   -1.2780   -1.0320  -16.9650 C   0  0  0  0  0  0  0  0  0  0  0  0
   -3.6030   -1.7180  -16.8540 C   0  0  0  0  0  0  0  0  0  0  0  0
   -2.5320   -1.1450  -17.4170 C   0  0  0  0  0  0  0  0  0  0  0  0
   -8.2470   -2.9440  -16.3870 C   0  0  0  0  0  0  0  0  0  0  0  0
   -4.8190   -1.5880  -17.7090 C   0  0  0  0  0  0  0  0  0  0  0  0
   -6.2270   -2.8500  -15.3110 C   0  0  0  0  0  0  0  0  0  0  0  0
   -6.3890   -0.9690  -19.8730 C   0  0  0  0  0  0  0  0  0  0  0  0
   -4.2460   -0.9100  -18.8660 C   0  0  0  0  0  0  0  0  0  0  0  0
   -9.3290   -2.8500  -17.3580 C   0  0  0  0  0  0  0  0  0  0  0  0
   -2.9580   -0.5880  -18.6730 O   0  0  0  0  0  0  0  0  0  0  0  0
   -7.1840   -3.3730  -14.4500 N   0  0  0  0  0  0  0  0  0  0  0  0
   -3.2900   -2.4930  -15.6850 C   0  0  0  0  0  0  0  0  0  0  0  0
   -5.0830   -0.6220  -19.9260 C   0  0  0  0  0  0  0  0  0  0  0  0
   -6.2490   -1.8630  -17.6890 C   0  0  0  0  0  0  0  0  0  0  0  0
   -1.0280   -1.7340  -15.7290 C   0  0  0  0  0  0  0  0  0  0  0  0
   -6.8590   -2.5500  -16.5270 C   0  0  0  0  0  0  0  0  0  0  0  0
   -8.3820   -3.4270  -15.1460 N   0  0  0  0  0  0  0  0  0  0  0  0
   -6.9750   -1.5980  -18.8760 C   0  0  0  0  0  0  0  0  0  0  0  0
   -2.0830   -2.4560  -15.1180 C   0  0  0  0  0  0  0  0  0  0  0  0
  1 15  4  0
  2 12  4  0
  3  1  4  0
  3  2  4  0
  4 17  4  0
  5 14  4  0
  5  2  4  0
  6 11  4  0
  7 18  4  0
  8 10  4  0
  8  5  4  0
  9  4  1  0
 10  3  4  0
 12 19  4  0
 13  7  4  0
 13  8  4  0
 14 16  1  0
 15 19  4  0
 16  4  4  0
 16  6  4  0
 17 11  4  0
 18 14  4  0
M  END
$$$$

     RDKit          3D

 19 22  0  0  0  0  0  0  0  0999 V2000
   -1.3610   -1.1610  -17.4380 C   0  0  0  0  0  0  0  0  0  0  0  0
   -3.8230   -1.7790  -17.2250 C   0  0  0  0  0  0  0  0  0  0  0  0
   -2.6450   -1.2560  -18.0290 C   0  0  0  0  0  0  0  0  0  0  0  0
   -8.3390   -2.6830  -16.3730 C   0  0  0  0  0  0  0  0  0  0  0  0
   -4.9520   -1.5670  -18.0580 C   0  0  0  0  0  0  0  0  0  0  0  0
   -6.1890   -3.0350  -15.7460 N   0  0  0  0  0  0  0  0  0  0  0  0
   -6.7550   -0.7810  -20.1110 C   0  0  0  0  0  0  0  0  0  0  0  0
   -4.4330   -0.9160  -19.3070 C   0  0  0  0  0  0  0  0  0  0  0  0
   -9.6600   -2.5060  -17.1150 C   0  0  0  0  0  0  0  0  0  0  0  0
   -3.0650   -0.9030  -19.2460 N   0  0  0  0  0  0  0  0  0  0  0  0
   -7.0320   -3.7540  -14.8480 N   0  0  0  0  0  0  0  0  0  0  0  0
   -3.6660   -2.2280  -15.8720 C   0  0  0  0  0  0  0  0  0  0  0  0
   -5.3640   -0.5380  -20.3200 C   0  0  0  0  0  0  0  0  0  0  0  0
   -6.4460   -1.8170  -17.9580 C   0  0  0  0  0  0  0  0  0  0  0  0
   -1.2160   -1.6600  -16.1360 C   0  0  0  0  0  0  0  0  0  0  0  0
   -7.0030   -2.5300  -16.7470 C   0  0  0  0  0  0  0  0  0  0  0  0
   -8.3660   -3.5390  -15.2240 N   0  0  0  0  0  0  0  0  0  0  0  0
   -7.2430   -1.3760  -19.0090 N   0  0  0  0  0  0  0  0  0  0  0  0
   -2.2950   -2.1500  -15.3790 C   0  0  0  0  0  0  0  0  0  0  0  0
  1 15  1  0
  2 12  1  0
  3  1  2  0
  3  2  1  0
  4 17  4  0
  5 14  4  0
  5  2  2  0
  6 11  4  0
  7 18  4  0
  8 10  2  0
  8  5  4  0
  9  4  1  0
 10  3  1  0
 12 19  2  0
 13  7  4  0
 13  8  4  0
 14 16  1  0
 15 19  1  0
 16  4  4  0
 16  6  4  0
 17 11  4  0
 18 14  4  0
M  END
$$$$

     RDKit          3D

 19 22  0  0  0  0  0  0  0  0999 V2000
   -1.1300   -1.3890  -17.5380 C   0  0  0  0  0  0  0  0  0  0  0  0
   -3.5490   -1.8880  -17.0330 C   0  0  0  0  0  0  0  0  0  0  0  0
   -2.4410   -1.3280  -17.9490 C   0  0  0  0  0  0  0  0  0  0  0  0
   -8.2200   -3.1200  -16.3980 C   0  0  0  0  0  0  0  0  0  0  0  0
   -4.8920   -1.7180  -17.7260 C   0  0  0  0  0  0  0  0  0  0  0  0
   -6.3100   -3.1740  -15.2920 C   0  0  0  0  0  0  0  0  0  0  0  0
   -6.7150   -0.9230  -19.7730 C   0  0  0  0  0  0  0  0  0  0  0  0
   -4.4820   -1.0270  -18.9140 C   0  0  0  0  0  0  0  0  0  0  0  0
   -9.2200   -2.9520  -17.3180 N   0  0  0  0  0  0  0  0  0  0  0  0
   -3.1270   -0.8600  -19.0050 N   0  0  0  0  0  0  0  0  0  0  0  0
   -7.1680   -3.8700  -14.6380 N   0  0  0  0  0  0  0  0  0  0  0  0
   -3.1940   -2.3360  -15.7590 C   0  0  0  0  0  0  0  0  0  0  0  0
   -5.3830   -0.6530  -19.8580 N   0  0  0  0  0  0  0  0  0  0  0  0
   -6.2970   -2.0730  -17.5370 C   0  0  0  0  0  0  0  0  0  0  0  0
   -0.7900   -1.8000  -16.2570 C   0  0  0  0  0  0  0  0  0  0  0  0
   -6.9030   -2.7430  -16.4720 C   0  0  0  0  0  0  0  0  0  0  0  0
   -8.3700   -3.9090  -15.2740 N   0  0  0  0  0  0  0  0  0  0  0  0
   -7.1540   -1.6210  -18.6410 C   0  0  0  0  0  0  0  0  0  0  0  0
   -1.8590   -2.2850  -15.4130 C   0  0  0  0  0  0  0  0  0  0  0  0
  1 15  4  0
  2 12  4  0
  3  1  4  0
  3  2  4  0
  4 17  4  0
  5 14  2  0
  5  2  1  0
  6 11  4  0
  7 18  1  0
  8  5  1  0
  9  4  1  0
 10  8  2  0
 10  3  1  0
 12 19  4  0
 13  7  2  0
 13  8  1  0
 14 16  1  0
 15 19  4  0
 16  4  4  0
 16  6  4  0
 17 11  4  0
 18 14  1  0
M  END
$$$$

     RDKit          3D

 19 22  0  0  0  0  0  0  0  0999 V2000
   -1.1480   -1.0630  -17.3650 C   0  0  0  0  0  0  0  0  0  0  0  0
   -3.5500   -1.9440  -17.0250 C   0  0  0  0  0  0  0  0  0  0  0  0
   -2.5580   -1.4070  -17.6900 C   0  0  0  0  0  0  0  0  0  0  0  0
   -8.2260   -3.0720  -16.4040 C   0  0  0  0  0  0  0  0  0  0  0  0
   -4.7710   -1.7620  -17.7090 C   0  0  0  0  0  0  0  0  0  0  0  0
   -6.1490   -3.0830  -15.4060 N   0  0  0  0  0  0  0  0  0  0  0  0
   -6.5600   -1.0340  -19.8120 C   0  0  0  0  0  0  0  0  0  0  0  0
   -4.4150   -1.0710  -18.9060 C   0  0  0  0  0  0  0  0  0  0  0  0
   -9.4000   -3.0300  -17.2890 C   0  0  0  0  0  0  0  0  0  0  0  0
   -3.0030   -0.8660  -18.8880 N   0  0  0  0  0  0  0  0  0  0  0  0
   -7.0150   -3.7340  -14.5620 N   0  0  0  0  0  0  0  0  0  0  0  0
   -3.1970   -2.7980  -15.7570 C   0  0  0  0  0  0  0  0  0  0  0  0
   -5.2310   -0.7560  -19.9670 C   0  0  0  0  0  0  0  0  0  0  0  0
   -6.2170   -2.0390  -17.6160 C   0  0  0  0  0  0  0  0  0  0  0  0
   -0.5010   -2.0200  -15.9540 S   0  0  0  0  0  0  0  0  0  0  0  0
   -6.8690   -2.6890  -16.4500 C   0  0  0  0  0  0  0  0  0  0  0  0
   -8.3530   -3.6930  -15.1680 N   0  0  0  0  0  0  0  0  0  0  0  0
   -7.0000   -1.6110  -18.6520 C   0  0  0  0  0  0  0  0  0  0  0  0
   -2.0110   -2.1140  -14.9810 C   0  0  0  0  0  0  0  0  0  0  0  0
  1 15  1  0
  2 12  1  0
  3  1  1  0
  3  2  1  0
  4 17  4  0
  5 14  4  0
  5  2  2  0
  6 11  4  0
  7 18  4  0
  8 10  2  0
  8  5  4  0
  9  4  1  0
 10  3  1  0
 12 19  1  0
 13  7  4  0
 13  8  4  0
 14 16  1  0
 15 19  1  0
 16  4  4  0
 16  6  4  0
 17 11  4  0
 18 14  4  0
M  END
$$$$

     RDKit          3D

 19 22  0  0  0  0  0  0  0  0999 V2000
   -1.1620   -1.2610  -17.0620 C   0  0  0  0  0  0  0  0  0  0  0  0
   -3.6430   -1.7820  -17.0370 C   0  0  0  0  0  0  0  0  0  0  0  0
   -2.4570   -1.3500  -17.7020 C   0  0  0  0  0  0  0  0  0  0  0  0
   -8.2730   -2.8590  -16.4890 N   0  0  0  0  0  0  0  0  0  0  0  0
   -4.8270   -1.6730  -17.8650 C   0  0  0  0  0  0  0  0  0  0  0  0
   -6.3420   -2.9540  -15.4550 N   0  0  0  0  0  0  0  0  0  0  0  0
   -6.6430   -0.7730  -19.9680 N   0  0  0  0  0  0  0  0  0  0  0  0
   -4.4950   -1.0560  -19.1270 C   0  0  0  0  0  0  0  0  0  0  0  0
   -9.3910   -2.5630  -17.3580 C   0  0  0  0  0  0  0  0  0  0  0  0
   -2.7650   -0.7420  -19.2990 S   0  0  0  0  0  0  0  0  0  0  0  0
   -7.3150   -3.5250  -14.6970 C   0  0  0  0  0  0  0  0  0  0  0  0
   -3.4890   -2.2660  -15.6810 C   0  0  0  0  0  0  0  0  0  0  0  0
   -5.3120   -0.6280  -20.1490 N   0  0  0  0  0  0  0  0  0  0  0  0
   -6.2540   -1.8460  -17.7570 C   0  0  0  0  0  0  0  0  0  0  0  0
   -1.0470   -1.7330  -15.6740 C   0  0  0  0  0  0  0  0  0  0  0  0
   -6.9350   -2.5000  -16.5710 C   0  0  0  0  0  0  0  0  0  0  0  0
   -8.4470   -3.4720  -15.2890 N   0  0  0  0  0  0  0  0  0  0  0  0
   -7.1030   -1.3300  -18.8470 C   0  0  0  0  0  0  0  0  0  0  0  0
   -2.2050   -2.2480  -15.0550 C   0  0  0  0  0  0  0  0  0  0  0  0
  1 15  4  0
  2 12  4  0
  3  1  4  0
  3  2  4  0
  4 17  4  0
  5 14  4  0
  5  2  4  0
  6 11  4  0
  7 18  4  0
  8  5  4  0
  9  4  1  0
 10  8  4  0
 10  3  4  0
 12 19  4  0
 13  7  4  0
 13  8  4  0
 14 16  1  0
 15 19  4  0
 16  4  4  0
 16  6  4  0
 17 11  4  0
 18 14  4  0
M  END
$$$$

     RDKit          3D

 19 22  0  0  0  0  0  0  0  0999 V2000
   -1.3680   -1.4050  -17.4280 C   0  0  0  0  0  0  0  0  0  0  0  0
   -3.7350   -1.8740  -17.1610 C   0  0  0  0  0  0  0  0  0  0  0  0
   -2.6790   -1.4150  -17.8430 C   0  0  0  0  0  0  0  0  0  0  0  0
   -8.3350   -2.9890  -16.6120 C   0  0  0  0  0  0  0  0  0  0  0  0
   -5.0120   -1.6270  -17.8930 C   0  0  0  0  0  0  0  0  0  0  0  0
   -6.3680   -3.0520  -15.5480 O   0  0  0  0  0  0  0  0  0  0  0  0
   -6.6930   -0.7860  -19.8490 C   0  0  0  0  0  0  0  0  0  0  0  0
   -4.5390   -1.0290  -19.0470 C   0  0  0  0  0  0  0  0  0  0  0  0
   -9.3030   -2.8170  -17.3660 O   0  0  0  0  0  0  0  0  0  0  0  0
   -3.1910   -0.8950  -19.0280 N   0  0  0  0  0  0  0  0  0  0  0  0
   -7.1760   -3.5840  -14.9140 N   0  0  0  0  0  0  0  0  0  0  0  0
   -3.4500   -2.4290  -15.8850 C   0  0  0  0  0  0  0  0  0  0  0  0
   -5.3730   -0.5700  -19.9750 N   0  0  0  0  0  0  0  0  0  0  0  0
   -6.4140   -1.8620  -17.8300 C   0  0  0  0  0  0  0  0  0  0  0  0
   -1.1130   -1.9720  -16.1460 C   0  0  0  0  0  0  0  0  0  0  0  0
   -7.0180   -2.5840  -16.7010 C   0  0  0  0  0  0  0  0  0  0  0  0
   -8.4710   -3.5610  -15.3740 N   0  0  0  0  0  0  0  0  0  0  0  0
   -7.1670   -1.3970  -18.7770 N   0  0  0  0  0  0  0  0  0  0  0  0
   -2.1630   -2.5440  -15.3950 C   0  0  0  0  0  0  0  0  0  0  0  0
  1 15  4  0
  2 12  4  0
  3  1  4  0
  3  2  4  0
  4 17  1  0
  5  8  1  0
  5 14  1  0
  5  2  1  0
  6 11  1  0
  7 18  1  0
  8 10  2  0
  9  4  2  0
 10  3  1  0
 12 19  4  0
 13  7  2  0
 13  8  1  0
 15 19  4  0
 16 14  1  0
 16  4  1  0
 16  6  1  0
 17 11  2  0
 18 14  2  0
M  END
$$$$

     RDKit          3D

 19 22  0  0  0  0  0  0  0  0999 V2000
   -1.3200   -1.5010  -17.0550 C   0  0  0  0  0  0  0  0  0  0  0  0
   -3.7600   -1.8510  -17.0150 C   0  0  0  0  0  0  0  0  0  0  0  0
   -2.5940   -1.3350  -17.6400 C   0  0  0  0  0  0  0  0  0  0  0  0
   -8.0890   -2.9920  -16.6290 C   0  0  0  0  0  0  0  0  0  0  0  0
   -4.7960   -1.5640  -17.9170 C   0  0  0  0  0  0  0  0  0  0  0  0
   -6.1680   -2.8310  -15.4470 C   0  0  0  0  0  0  0  0  0  0  0  0
   -6.4440   -0.8730  -19.9910 C   0  0  0  0  0  0  0  0  0  0  0  0
   -4.2420   -0.9600  -19.0380 C   0  0  0  0  0  0  0  0  0  0  0  0
   -9.2480   -2.8310  -17.4750 C   0  0  0  0  0  0  0  0  0  0  0  0
   -2.9720   -0.7830  -18.8270 N   0  0  0  0  0  0  0  0  0  0  0  0
   -7.0890   -3.4500  -14.6510 N   0  0  0  0  0  0  0  0  0  0  0  0
   -3.5940   -2.5030  -15.8230 C   0  0  0  0  0  0  0  0  0  0  0  0
   -5.0680   -0.6700  -20.0540 C   0  0  0  0  0  0  0  0  0  0  0  0
   -6.1440   -1.8450  -17.7980 C   0  0  0  0  0  0  0  0  0  0  0  0
   -1.2100   -2.1900  -15.8940 C   0  0  0  0  0  0  0  0  0  0  0  0
   -6.7580   -2.5110  -16.6630 C   0  0  0  0  0  0  0  0  0  0  0  0
   -8.2210   -3.5990  -15.3870 N   0  0  0  0  0  0  0  0  0  0  0  0
   -6.9400   -1.4730  -18.8970 C   0  0  0  0  0  0  0  0  0  0  0  0
   -2.3200   -2.6180  -15.2620 C   0  0  0  0  0  0  0  0  0  0  0  0
  1 15  1  0
  2 12  1  0
  3  1  2  0
  3  2  1  0
  4 17  4  0
  5 14  4  0
  5  2  2  0
  6 11  4  0
  7 18  4  0
  8 10  2  0
  8  5  4  0
  9  4  1  0
 10  3  1  0
 12 19  2  0
 13  7  4  0
 13  8  4  0
 14 16  1  0
 15 19  1  0
 16  4  4  0
 16  6  4  0
 17 11  4  0
 18 14  4  0
M  END
$$$$

     RDKit          3D

 19 22  0  0  0  0  0  0  0  0999 V2000
   -1.1230   -0.7890  -17.1080 C   0  0  0  0  0  0  0  0  0  0  0  0
   -3.4630   -1.7030  -17.0320 C   0  0  0  0  0  0  0  0  0  0  0  0
   -2.4000   -0.9930  -17.6950 C   0  0  0  0  0  0  0  0  0  0  0  0
   -8.2760   -3.0040  -16.4410 C   0  0  0  0  0  0  0  0  0  0  0  0
   -4.6820   -1.5610  -17.8500 C   0  0  0  0  0  0  0  0  0  0  0  0
   -6.3780   -3.0870  -15.3070 C   0  0  0  0  0  0  0  0  0  0  0  0
   -6.5980   -0.9800  -19.8660 C   0  0  0  0  0  0  0  0  0  0  0  0
   -4.4100   -0.8660  -19.0850 C   0  0  0  0  0  0  0  0  0  0  0  0
   -9.4740   -2.9050  -17.4570 C   0  0  0  0  0  0  0  0  0  0  0  0
   -2.7400   -0.5430  -19.2880 S   0  0  0  0  0  0  0  0  0  0  0  0
   -7.3250   -3.6980  -14.5820 N   0  0  0  0  0  0  0  0  0  0  0  0
   -3.1840   -2.3320  -15.7980 C   0  0  0  0  0  0  0  0  0  0  0  0
   -5.3330   -0.5950  -20.0200 C   0  0  0  0  0  0  0  0  0  0  0  0
   -6.0770   -1.9520  -17.7080 C   0  0  0  0  0  0  0  0  0  0  0  0
   -0.9720   -1.4390  -15.8500 C   0  0  0  0  0  0  0  0  0  0  0  0
   -6.8070   -2.6080  -16.5930 C   0  0  0  0  0  0  0  0  0  0  0  0
   -8.4790   -3.6120  -15.3730 N   0  0  0  0  0  0  0  0  0  0  0  0
   -6.9740   -1.5670  -18.7530 C   0  0  0  0  0  0  0  0  0  0  0  0
   -1.8960   -2.2200  -15.1870 C   0  0  0  0  0  0  0  0  0  0  0  0
  1 15  4  0
  2 12  4  0
  3  1  4  0
  3  2  4  0
  4 17  4  0
  5 14  4  0
  5  2  4  0
  6 11  4  0
  7 18  4  0
  8  5  4  0
  9  4  1  0
 10  8  4  0
 10  3  4  0
 12 19  4  0
 13  7  4  0
 13  8  4  0
 14 16  1  0
 15 19  4  0
 16  4  4  0
 16  6  4  0
 17 11  4  0
 18 14  4  0
M  END
$$$$

     RDKit          3D

 19 22  0  0  0  0  0  0  0  0999 V2000
   -1.3770   -0.7980  -16.8470 C   0  0  0  0  0  0  0  0  0  0  0  0
   -3.4740   -1.9010  -16.8390 C   0  0  0  0  0  0  0  0  0  0  0  0
   -2.4910   -1.1330  -17.4910 C   0  0  0  0  0  0  0  0  0  0  0  0
   -8.2050   -2.9360  -16.3840 C   0  0  0  0  0  0  0  0  0  0  0  0
   -4.7420   -1.6440  -17.7810 C   0  0  0  0  0  0  0  0  0  0  0  0
   -6.2710   -2.6490  -15.2750 C   0  0  0  0  0  0  0  0  0  0  0  0
   -6.5080   -0.8730  -19.9110 C   0  0  0  0  0  0  0  0  0  0  0  0
   -4.2740   -0.9160  -18.9460 C   0  0  0  0  0  0  0  0  0  0  0  0
   -9.4190   -2.9490  -17.1920 C   0  0  0  0  0  0  0  0  0  0  0  0
   -2.9610   -0.6120  -18.7050 N   0  0  0  0  0  0  0  0  0  0  0  0
   -7.0660   -3.4860  -14.5250 N   0  0  0  0  0  0  0  0  0  0  0  0
   -3.1090   -2.7460  -15.8330 C   0  0  0  0  0  0  0  0  0  0  0  0
   -5.2100   -0.5910  -19.9060 C   0  0  0  0  0  0  0  0  0  0  0  0
   -6.2110   -1.9270  -17.6970 C   0  0  0  0  0  0  0  0  0  0  0  0
   -0.9580   -1.6350  -15.7860 C   0  0  0  0  0  0  0  0  0  0  0  0
   -6.8730   -2.5420  -16.6110 C   0  0  0  0  0  0  0  0  0  0  0  0
   -8.2580   -3.5520  -15.1390 N   0  0  0  0  0  0  0  0  0  0  0  0
   -7.0020   -1.5510  -18.8020 C   0  0  0  0  0  0  0  0  0  0  0  0
   -1.8690   -2.5870  -15.3230 C   0  0  0  0  0  0  0  0  0  0  0  0
  1 15  1  0
  2 12  1  0
  3  1  2  0
  3  2  1  0
  4 17  1  0
  5 14  4  0
  5  2  2  0
  6 11  1  0
  7 13  4  0
  7 18  4  0
  8 10  2  0
  8  5  4  0
  9  4  1  0
 10  3  1  0
 12 19  2  0
 13  8  4  0
 14 16  1  0
 15 19  1  0
 16  4  2  0
 16  6  1  0
 17 11  1  0
 18 14  4  0
M  END
$$$$

     RDKit          3D

 19 22  0  0  0  0  0  0  0  0999 V2000
   -1.5240   -1.1130  -17.2510 C   0  0  0  0  0  0  0  0  0  0  0  0
   -3.8270   -1.7180  -17.0550 C   0  0  0  0  0  0  0  0  0  0  0  0
   -2.8150   -1.2270  -17.8120 C   0  0  0  0  0  0  0  0  0  0  0  0
   -8.3210   -2.8940  -16.4030 C   0  0  0  0  0  0  0  0  0  0  0  0
   -5.0910   -1.5850  -17.8990 C   0  0  0  0  0  0  0  0  0  0  0  0
   -6.2980   -2.9630  -15.6160 N   0  0  0  0  0  0  0  0  0  0  0  0
   -6.9010   -0.8500  -19.9160 C   0  0  0  0  0  0  0  0  0  0  0  0
   -4.6410   -0.9870  -19.1200 C   0  0  0  0  0  0  0  0  0  0  0  0
   -9.3420   -2.6430  -17.0290 O   0  0  0  0  0  0  0  0  0  0  0  0
   -3.2850   -0.8640  -19.0790 N   0  0  0  0  0  0  0  0  0  0  0  0
   -7.0820   -3.6510  -14.8300 O   0  0  0  0  0  0  0  0  0  0  0  0
   -3.5530   -2.1390  -15.7830 C   0  0  0  0  0  0  0  0  0  0  0  0
   -5.5070   -0.5810  -20.1370 C   0  0  0  0  0  0  0  0  0  0  0  0
   -6.4780   -1.8470  -17.8110 C   0  0  0  0  0  0  0  0  0  0  0  0
   -1.2760   -1.3700  -15.9890 C   0  0  0  0  0  0  0  0  0  0  0  0
   -6.9910   -2.5240  -16.6850 C   0  0  0  0  0  0  0  0  0  0  0  0
   -8.3740   -3.6180  -15.2200 N   0  0  0  0  0  0  0  0  0  0  0  0
   -7.2830   -1.4170  -18.8110 C   0  0  0  0  0  0  0  0  0  0  0  0
   -2.2380   -2.0050  -15.2220 C   0  0  0  0  0  0  0  0  0  0  0  0
  1 15  1  0
  2 12  1  0
  3  1  2  0
  3  2  1  0
  4 17  4  0
  5 14  4  0
  5  2  2  0
  6 11  4  0
  7 18  4  0
  8 10  2  0
  8  5  4  0
  9  4  2  0
 10  3  1  0
 12 19  2  0
 13  7  4  0
 13  8  4  0
 14 16  1  0
 15 19  1  0
 16  4  4  0
 16  6  4  0
 17 11  4  0
 18 14  4  0
M  END
$$$$
