3pbq_imipenem_iter3_all_filtered_36
     RDKit          3D

 19 22  0  0  0  0  0  0  0  0999 V2000
   -1.1560   -0.8070  -17.4230 C   0  0  0  0  0  0  0  0  0  0  0  0
   -3.4590   -1.6850  -17.2260 C   0  0  0  0  0  0  0  0  0  0  0  0
   -2.4700   -1.0010  -17.9480 C   0  0  0  0  0  0  0  0  0  0  0  0
   -8.1860   -3.2300  -16.6060 C   0  0  0  0  0  0  0  0  0  0  0  0
   -4.7710   -1.5230  -17.9960 C   0  0  0  0  0  0  0  0  0  0  0  0
   -6.1850   -3.1120  -15.5910 N   0  0  0  0  0  0  0  0  0  0  0  0
   -6.7480   -0.8280  -19.9600 C   0  0  0  0  0  0  0  0  0  0  0  0
   -4.5280   -0.9040  -19.2780 C   0  0  0  0  0  0  0  0  0  0  0  0
   -9.1910   -3.0990  -17.3750 N   0  0  0  0  0  0  0  0  0  0  0  0
   -2.8160   -0.5860  -19.4410 S   0  0  0  0  0  0  0  0  0  0  0  0
   -7.0730   -3.8370  -14.7530 C   0  0  0  0  0  0  0  0  0  0  0  0
   -3.1690   -2.1950  -15.9780 C   0  0  0  0  0  0  0  0  0  0  0  0
   -5.3820   -0.5450  -20.1320 N   0  0  0  0  0  0  0  0  0  0  0  0
   -6.1790   -1.9330  -17.8050 C   0  0  0  0  0  0  0  0  0  0  0  0
   -0.8880   -1.3040  -16.1450 C   0  0  0  0  0  0  0  0  0  0  0  0
   -6.8380   -2.7340  -16.7110 C   0  0  0  0  0  0  0  0  0  0  0  0
   -8.2870   -3.9400  -15.4220 O   0  0  0  0  0  0  0  0  0  0  0  0
   -7.1980   -1.4940  -18.7950 C   0  0  0  0  0  0  0  0  0  0  0  0
   -1.9500   -1.9980  -15.4130 C   0  0  0  0  0  0  0  0  0  0  0  0
  1 15  2  0
  2 12  1  0
  3  1  1  0
  3  2  2  0
  4 17  1  0
  5 14  1  0
  5  2  1  0
  6 11  2  0
  7 18  1  0
  8  5  2  0
  9  4  1  0
 10  8  1  0
 10  3  1  0
 12 19  2  0
 13  7  2  0
 13  8  1  0
 14 16  1  0
 15 19  1  0
 16  4  2  0
 16  6  1  0
 17 11  1  0
 18 14  2  0
M  END
>  <rank>  (1) 
1

>  <composite_score>  (1) 
0.6854

>  <smiles>  (1) 
Nc1ocnc1-c1ccnc2sc3ccccc3c12

$$$$
3pbq_imipenem_iter3_all_filtered_24
     RDKit          3D

 19 22  0  0  0  0  0  0  0  0999 V2000
   -1.6560   -1.5050  -17.0900 C   0  0  0  0  0  0  0  0  0  0  0  0
   -3.9350   -2.0270  -16.9560 C   0  0  0  0  0  0  0  0  0  0  0  0
   -2.8840   -1.5620  -17.5770 C   0  0  0  0  0  0  0  0  0  0  0  0
   -8.4600   -2.9580  -16.6760 C   0  0  0  0  0  0  0  0  0  0  0  0
   -5.0020   -1.7370  -17.8890 C   0  0  0  0  0  0  0  0  0  0  0  0
   -6.5790   -2.6750  -15.4190 C   0  0  0  0  0  0  0  0  0  0  0  0
   -6.6090   -0.9490  -19.9730 C   0  0  0  0  0  0  0  0  0  0  0  0
   -4.5100   -1.1020  -18.9830 C   0  0  0  0  0  0  0  0  0  0  0  0
   -9.5660   -3.0790  -17.4920 C   0  0  0  0  0  0  0  0  0  0  0  0
   -3.3110   -0.9750  -18.7550 N   0  0  0  0  0  0  0  0  0  0  0  0
   -7.5380   -3.1750  -14.6720 N   0  0  0  0  0  0  0  0  0  0  0  0
   -3.7030   -2.5130  -15.7480 C   0  0  0  0  0  0  0  0  0  0  0  0
   -5.2800   -0.6600  -20.0390 C   0  0  0  0  0  0  0  0  0  0  0  0
   -6.4900   -1.9530  -17.8180 C   0  0  0  0  0  0  0  0  0  0  0  0
   -1.4080   -2.0860  -15.9300 C   0  0  0  0  0  0  0  0  0  0  0  0
   -7.1560   -2.5610  -16.7510 C   0  0  0  0  0  0  0  0  0  0  0  0
   -8.6270   -3.4580  -15.4150 O   0  0  0  0  0  0  0  0  0  0  0  0
   -7.1790   -1.6020  -18.8950 C   0  0  0  0  0  0  0  0  0  0  0  0
   -2.4390   -2.5390  -15.2670 C   0  0  0  0  0  0  0  0  0  0  0  0
  1 15  1  0
  2 12  1  0
  3  1  2  0
  3  2  1  0
  4 17  1  0
  5 14  1  0
  5  2  2  0
  6 11  2  0
  7 18  1  0
  8 10  2  0
  8  5  1  0
  9  4  1  0
 10  3  1  0
 12 19  2  0
 13  7  2  0
 13  8  1  0
 14 16  1  0
 15 19  1  0
 16  4  2  0
 16  6  1  0
 17 11  1  0
 18 14  2  0
M  END
>  <rank>  (2) 
2

>  <composite_score>  (2) 
0.6505

>  <smiles>  (2) 
Cc1oncc1-c1cccc2c1=C1C=CCC=C1N=2

$$$$
3pbq_imipenem_iter3_all_filtered_0
     RDKit          3D

 19 22  0  0  0  0  0  0  0  0999 V2000
   -1.3400   -1.1210  -16.9400 C   0  0  0  0  0  0  0  0  0  0  0  0
   -3.6610   -1.8210  -16.8510 C   0  0  0  0  0  0  0  0  0  0  0  0
   -2.5940   -1.1630  -17.4350 C   0  0  0  0  0  0  0  0  0  0  0  0
   -8.1340   -3.2210  -16.3930 C   0  0  0  0  0  0  0  0  0  0  0  0
   -4.8470   -1.6660  -17.6730 C   0  0  0  0  0  0  0  0  0  0  0  0
   -6.1410   -3.0610  -15.3530 C   0  0  0  0  0  0  0  0  0  0  0  0
   -6.4840   -0.9950  -19.7820 C   0  0  0  0  0  0  0  0  0  0  0  0
   -4.3510   -1.0040  -18.7650 C   0  0  0  0  0  0  0  0  0  0  0  0
   -9.3340   -3.2070  -17.2520 C   0  0  0  0  0  0  0  0  0  0  0  0
   -3.0340   -0.7670  -18.5350 N   0  0  0  0  0  0  0  0  0  0  0  0
   -7.0160   -3.7230  -14.5740 O   0  0  0  0  0  0  0  0  0  0  0  0
   -3.3970   -2.3900  -15.6640 C   0  0  0  0  0  0  0  0  0  0  0  0
   -5.1260   -0.7110  -19.8700 C   0  0  0  0  0  0  0  0  0  0  0  0
   -6.2340   -2.0150  -17.6350 C   0  0  0  0  0  0  0  0  0  0  0  0
   -1.1070   -1.6460  -15.6730 C   0  0  0  0  0  0  0  0  0  0  0  0
   -6.8230   -2.6950  -16.5410 C   0  0  0  0  0  0  0  0  0  0  0  0
   -8.2160   -3.8050  -15.2350 N   0  0  0  0  0  0  0  0  0  0  0  0
   -7.0140   -1.6490  -18.6690 C   0  0  0  0  0  0  0  0  0  0  0  0
   -2.1660   -2.2800  -15.0730 C   0  0  0  0  0  0  0  0  0  0  0  0
  1 15  1  0
  2 12  1  0
  3  1  2  0
  3  2  1  0
  4 17  2  0
  5 14  1  0
  5  2  2  0
  6 11  1  0
  7 18  1  0
  8 10  2  0
  8  5  1  0
  9  4  1  0
 10  3  1  0
 12 19  2  0
 13  7  2  0
 13  8  1  0
 14 16  1  0
 15 19  1  0
 16  4  1  0
 16  6  2  0
 17 11  1  0
 18 14  2  0
M  END
>  <rank>  (3) 
3

>  <composite_score>  (3) 
0.6489

>  <smiles>  (3) 
Cc1nocc1-c1cccc2c1=C1C=CCC=C1N=2

$$$$
3pbq_imipenem_iter3_all_filtered_4
     RDKit          3D

 19 22  0  0  0  0  0  0  0  0999 V2000
   -1.3980   -0.8010  -16.7700 C   0  0  0  0  0  0  0  0  0  0  0  0
   -3.7130   -1.7970  -16.8650 C   0  0  0  0  0  0  0  0  0  0  0  0
   -2.7060   -0.9940  -17.4770 C   0  0  0  0  0  0  0  0  0  0  0  0
   -8.1370   -3.2680  -16.2170 C   0  0  0  0  0  0  0  0  0  0  0  0
   -4.8850   -1.7110  -17.7420 C   0  0  0  0  0  0  0  0  0  0  0  0
   -6.1270   -3.3290  -15.4020 N   0  0  0  0  0  0  0  0  0  0  0  0
   -6.7050   -1.0160  -19.9010 C   0  0  0  0  0  0  0  0  0  0  0  0
   -4.4450   -0.9300  -18.8430 C   0  0  0  0  0  0  0  0  0  0  0  0
   -9.4580   -3.2120  -16.9760 S   0  0  0  0  0  0  0  0  0  0  0  0
   -3.0370   -0.5820  -18.7110 N   0  0  0  0  0  0  0  0  0  0  0  0
   -6.8890   -4.0230  -14.5950 C   0  0  0  0  0  0  0  0  0  0  0  0
   -3.4420   -2.4540  -15.6200 C   0  0  0  0  0  0  0  0  0  0  0  0
   -5.3080   -0.6530  -19.9290 C   0  0  0  0  0  0  0  0  0  0  0  0
   -6.2590   -2.1400  -17.6410 C   0  0  0  0  0  0  0  0  0  0  0  0
   -1.2350   -1.4510  -15.5400 C   0  0  0  0  0  0  0  0  0  0  0  0
   -6.8620   -2.8820  -16.4800 C   0  0  0  0  0  0  0  0  0  0  0  0
   -8.2000   -3.9360  -15.0280 N   0  0  0  0  0  0  0  0  0  0  0  0
   -7.1190   -1.7340  -18.7600 C   0  0  0  0  0  0  0  0  0  0  0  0
   -2.1820   -2.3080  -14.9860 C   0  0  0  0  0  0  0  0  0  0  0  0
  1 15  1  0
  2 12  1  0
  3  2  1  0
  3  1  2  0
  4 17  1  0
  5 14  1  0
  5  2  2  0
  6 11  2  0
  7 18  1  0
  8 10  2  0
  8  5  1  0
  9  4  2  0
 10  3  1  0
 12 19  2  0
 13  7  2  0
 13  8  1  0
 15 19  1  0
 16 14  1  0
 16  4  1  0
 16  6  1  0
 17 11  1  0
 18 14  2  0
M  END
>  <rank>  (4) 
4

>  <composite_score>  (4) 
0.6405

>  <smiles>  (4) 
S=C1NC=NC1c1cccc2c1=C1C=CCC=C1N=2

$$$$
3pbq_imipenem_iter3_all_filtered_2
     RDKit          3D

 19 22  0  0  0  0  0  0  0  0999 V2000
   -1.2830   -0.7700  -16.9760 C   0  0  0  0  0  0  0  0  0  0  0  0
   -3.5240   -1.6970  -16.9580 C   0  0  0  0  0  0  0  0  0  0  0  0
   -2.4980   -0.9410  -17.5080 C   0  0  0  0  0  0  0  0  0  0  0  0
   -7.9670   -3.2180  -16.3400 C   0  0  0  0  0  0  0  0  0  0  0  0
   -4.6780   -1.5350  -17.7440 C   0  0  0  0  0  0  0  0  0  0  0  0
   -5.8590   -3.0650  -15.4870 N   0  0  0  0  0  0  0  0  0  0  0  0
   -6.5710   -0.8820  -19.7940 C   0  0  0  0  0  0  0  0  0  0  0  0
   -4.3250   -0.8470  -18.8770 C   0  0  0  0  0  0  0  0  0  0  0  0
   -9.3400   -3.1170  -17.2550 S   0  0  0  0  0  0  0  0  0  0  0  0
   -3.0410   -0.5360  -18.7300 N   0  0  0  0  0  0  0  0  0  0  0  0
   -6.6080   -3.9070  -14.8210 N   0  0  0  0  0  0  0  0  0  0  0  0
   -3.2180   -2.4420  -15.8300 C   0  0  0  0  0  0  0  0  0  0  0  0
   -5.1650   -0.5240  -19.9340 C   0  0  0  0  0  0  0  0  0  0  0  0
   -6.0830   -1.8940  -17.6650 C   0  0  0  0  0  0  0  0  0  0  0  0
   -0.9960   -1.5260  -15.8720 C   0  0  0  0  0  0  0  0  0  0  0  0
   -6.6340   -2.6030  -16.4740 C   0  0  0  0  0  0  0  0  0  0  0  0
   -7.9180   -3.9800  -15.2660 N   0  0  0  0  0  0  0  0  0  0  0  0
   -6.8830   -1.5090  -18.6470 N   0  0  0  0  0  0  0  0  0  0  0  0
   -1.8910   -2.3100  -15.2790 C   0  0  0  0  0  0  0  0  0  0  0  0
  1 15  1  0
  2 12  1  0
  3  1  2  0
  3  2  1  0
  4 17  1  0
  5 14  1  0
  5  2  2  0
  6 11  1  0
  7 18  1  0
  8 10  2  0
  8  5  1  0
  9  4  2  0
 10  3  1  0
 12 19  2  0
 13  7  2  0
 13  8  1  0
 14 16  1  0
 15 19  1  0
 16  4  1  0
 16  6  2  0
 17 11  2  0
 18 14  2  0
M  END
>  <rank>  (5) 
5

>  <composite_score>  (5) 
0.6366

>  <smiles>  (5) 
S=C1N=NN=C1c1nccc2c1=C1C=CCC=C1N=2

$$$$
