3pbq_imipenem_iter1_filtered_19
     RDKit          3D

 21 24  0  0  0  0  0  0  0  0999 V2000
   -6.2890   -1.6940  -17.8500 C   0  0  0  0  0  0  0  0  0  0  0  0
   -2.7310   -2.0070  -17.2790 C   0  0  0  0  0  0  0  0  0  0  0  0
   -7.9820   -3.3940  -15.1120 N   0  0  0  0  0  0  0  0  0  0  0  0
   -4.0260   -1.7370  -17.7710 C   0  0  0  0  0  0  0  0  0  0  0  0
    0.6820   -0.8770  -17.8410 C   0  0  0  0  0  0  0  0  0  0  0  0
   -3.0850   -0.5550  -19.4950 N   0  0  0  0  0  0  0  0  0  0  0  0
   -1.6100   -1.4580  -17.9200 C   0  0  0  0  0  0  0  0  0  0  0  0
   -2.5340   -4.3770  -16.7710 C   0  0  0  0  0  0  0  0  0  0  0  0
   -7.1790   -2.8180  -16.0480 C   0  0  0  0  0  0  0  0  0  0  0  0
   -3.2950   -2.6050  -15.1590 O   0  0  0  0  0  0  0  0  0  0  0  0
   -8.6350   -1.7390  -17.4560 F   0  0  0  0  0  0  0  0  0  0  0  0
   -5.6500   -2.9280  -15.8670 S   0  0  0  0  0  0  0  0  0  0  0  0
   -4.1880   -1.0390  -18.8570 C   0  0  0  0  0  0  0  0  0  0  0  0
    0.4680   -0.0890  -18.9650 C   0  0  0  0  0  0  0  0  0  0  0  0
   -7.3370   -2.0890  -17.2360 C   0  0  0  0  0  0  0  0  0  0  0  0
   -2.5400   -2.9170  -16.2640 C   0  0  2  0  0  0  0  0  0  0  0  0
   -5.8800   -0.9410  -19.2350 S   0  0  0  0  0  0  0  0  0  0  0  0
   -0.2680   -1.7450  -17.4360 C   0  0  0  0  0  0  0  0  0  0  0  0
   -0.7540   -0.0020  -19.6220 C   0  0  0  0  0  0  0  0  0  0  0  0
   -1.8560   -0.7100  -19.0500 C   0  0  0  0  0  0  0  0  0  0  0  0
   -5.1780   -2.1510  -17.1540 C   0  0  0  0  0  0  0  0  0  0  0  0
  1 15  1  0
  1 21  2  0
  2 16  1  0
  4  2  2  0
  4 21  1  0
  5 18  1  0
  6 20  1  0
  6 13  2  0
  7 18  2  0
  7  2  1  0
  9 12  1  0
  9  3  1  0
 11 15  1  0
 13  4  1  0
 14  5  2  0
 15  9  2  0
 16  8  1  6
 16 10  1  0
 17 13  1  0
 17  1  1  0
 19 20  2  0
 19 14  1  0
 20  7  1  0
 21 12  1  0
M  END
>  <rank>  (1) 
1

>  <composite_score>  (1) 
0.6970

>  <smiles>  (1) 
CC(O)c1c2ccccc2nc2sc3c(F)c(N)sc3c12

$$$$
3pbq_imipenem_iter1_filtered_232
     RDKit          3D

 21 24  0  0  0  0  0  0  0  0999 V2000
   -2.3110    0.3210  -20.3760 C   0  0  0  0  0  0  0  0  0  0  0  0
   -3.3940   -1.1370  -18.7830 C   0  0  0  0  0  0  0  0  0  0  0  0
   -2.1710   -0.7210  -18.2870 C   0  0  0  0  0  0  0  0  0  0  0  0
   -8.3920   -0.7570  -18.1340 O   0  0  0  0  0  0  0  0  0  0  0  0
   -3.9190   -0.3780  -20.2910 S   0  0  0  0  0  0  0  0  0  0  0  0
   -9.5280   -4.7270  -17.7370 O   0  0  0  0  0  0  0  0  0  0  0  0
   -7.6130   -1.9850  -18.0760 C   0  0  2  0  0  0  0  0  0  0  0  0
   -7.6260   -3.0590  -19.1120 N   0  0  0  0  0  0  0  0  0  0  0  0
   -7.7950   -4.1000  -14.8840 C   0  0  0  0  0  0  0  0  0  0  0  0
   -4.2040   -2.0810  -18.1580 C   0  0  0  0  0  0  0  0  0  0  0  0
   -3.9080   -2.4950  -16.8550 C   0  0  0  0  0  0  0  0  0  0  0  0
   -9.3390   -3.9210  -16.8530 C   0  0  0  0  0  0  0  0  0  0  0  0
   -2.6710   -2.0140  -16.3100 C   0  0  0  0  0  0  0  0  0  0  0  0
   -9.5720   -2.4170  -15.9750 C   0  0  0  0  0  0  0  0  0  0  0  0
   -7.2030   -2.3960  -16.6610 C   0  0  0  0  0  0  0  0  0  0  0  0
   -8.2790   -3.2600  -16.0290 C   0  0  1  0  0  0  0  0  0  0  0  0
   -1.8810   -1.1120  -16.9700 C   0  0  0  0  0  0  0  0  0  0  0  0
   -1.3560    0.1110  -19.2470 C   0  0  0  0  0  0  0  0  0  0  0  0
   -2.2430   -2.5350  -14.6960 Cl  0  0  0  0  0  0  0  0  0  0  0  0
   -5.2950   -2.5170  -18.9270 O   0  0  0  0  0  0  0  0  0  0  0  0
   -6.5650   -2.0710  -19.1780 C   0  0  2  0  0  0  0  0  0  0  0  0
  1  5  1  0
  1 18  2  0
  2  3  2  0
  2 10  1  0
  3 17  1  0
  5  2  1  0
  6 12  2  0
  7  4  1  1
  7 15  1  0
  8  7  1  0
 10 11  2  0
 11 13  1  0
 12 16  1  0
 12 14  1  0
 13 19  1  0
 15 16  1  0
 16 14  1  0
 16  9  1  1
 17 13  2  0
 18  3  1  0
 20 10  1  0
 21  8  1  0
 21 20  1  1
 21  7  1  0
M  END
>  <rank>  (2) 
2

>  <composite_score>  (2) 
0.6367

>  <smiles>  (2) 
CC1(CC2(O)NC2Oc2cc(Cl)cc3ccsc23)CC1=O

$$$$
3pbq_imipenem_iter1_filtered_287
     RDKit          3D

 19 23  0  0  0  0  0  0  0  0999 V2000
   -1.6790   -1.5120  -17.9960 C   0  0  0  0  0  0  0  0  0  0  0  0
   -3.8650   -2.1860  -17.3810 C   0  0  0  0  0  0  0  0  0  0  0  0
   -2.9760   -1.5740  -18.2580 C   0  0  0  0  0  0  0  0  0  0  0  0
   -7.8730   -2.8560  -16.2710 C   0  0  0  0  0  0  0  0  0  0  0  0
   -5.2040   -1.9220  -17.8960 C   0  0  0  0  0  0  0  0  0  0  0  0
   -6.2420   -3.4980  -15.3750 N   0  0  0  0  0  0  0  0  0  0  0  0
   -7.4190   -0.8410  -18.9860 C   0  0  0  0  0  0  0  0  0  0  0  0
   -5.1160   -1.1120  -19.0020 C   0  0  0  0  0  0  0  0  0  0  0  0
   -9.0570   -2.2180  -17.2340 S   0  0  0  0  0  0  0  0  0  0  0  0
   -3.7650   -1.0310  -19.2710 N   0  0  0  0  0  0  0  0  0  0  0  0
   -7.2780   -4.1280  -14.8820 N   0  0  0  0  0  0  0  0  0  0  0  0
   -3.4350   -2.7950  -16.3240 C   0  0  0  0  0  0  0  0  0  0  0  0
   -6.1820   -0.5770  -19.5860 C   0  0  0  0  0  0  0  0  0  0  0  0
   -6.3730   -2.2390  -17.4220 C   0  0  0  0  0  0  0  0  0  0  0  0
   -1.3980   -1.6450  -16.5500 C   0  0  0  0  0  0  0  0  0  0  0  0
   -6.7350   -2.8220  -16.3730 C   0  0  0  0  0  0  0  0  0  0  0  0
   -8.1940   -4.0040  -15.4770 C   0  0  0  0  0  0  0  0  0  0  0  0
   -7.5730   -1.6580  -18.0330 C   0  0  0  0  0  0  0  0  0  0  0  0
   -2.1180   -2.4780  -15.8660 C   0  0  0  0  0  0  0  0  0  0  0  0
  1 15  1  0
  2 12  1  0
  3  1  1  0
  3  2  2  0
  4 17  1  0
  5 14  2  0
  5  2  1  0
  6 11  1  0
  7 18  2  0
  8  5  1  0
  9  4  1  0
 10  8  2  0
 10  3  1  0
 12 19  2  0
 13  8  1  0
 13  7  1  0
 14 16  1  0
 15 19  1  0
 16  4  2  0
 16  6  1  0
 17 11  1  0
 18 14  1  0
 18  9  1  0
M  END
>  <rank>  (3) 
3

>  <composite_score>  (3) 
0.6335

>  <smiles>  (3) 
C1=CC2=C(CC1)N=C1CC=c3sc4c(c3=C12)NNC4

$$$$
3pbq_imipenem_iter1_filtered_93
     RDKit          3D

 22 25  0  0  0  0  0  0  0  0999 V2000
   -2.4620   -0.8240  -19.7040 C   0  0  0  0  0  0  0  0  0  0  0  0
   -2.8880   -2.2150  -15.7900 O   0  0  0  0  0  0  0  0  0  0  0  0
   -3.8530   -1.1450  -19.0690 C   0  0  1  0  0  0  0  0  0  0  0  0
   -1.6290   -2.0730  -19.3810 C   0  0  1  0  0  0  0  0  0  0  0  0
   -0.1660   -1.8970  -19.6470 C   0  0  0  0  0  0  0  0  0  0  0  0
   -2.8620   -1.9920  -16.9720 C   0  0  0  0  0  0  0  0  0  0  0  0
   -3.9110   -1.1990  -17.5730 C   0  0  2  0  0  0  0  0  0  0  0  0
   -9.4350   -3.1130  -17.0920 C   0  0  0  0  0  0  0  0  0  0  0  0
   -7.2050   -3.5840  -15.4500 N   0  0  0  0  0  0  0  0  0  0  0  0
  -10.4960   -2.7820  -17.6790 O   0  0  0  0  0  0  0  0  0  0  0  0
   -6.2140   -1.8870  -16.9580 C   0  0  0  0  0  0  0  0  0  0  0  0
   -9.3040   -4.1500  -16.2420 N   0  0  0  0  0  0  0  0  0  0  0  0
   -8.2720   -4.3210  -15.4610 C   0  0  0  0  0  0  0  0  0  0  0  0
   -0.5050   -2.7450  -17.4760 C   0  0  0  0  0  0  0  0  0  0  0  0
    0.4270   -1.7560  -18.1770 C   0  0  0  0  0  0  0  0  0  0  0  0
   -8.0590   -1.2220  -17.9540 N   0  0  0  0  0  0  0  0  0  0  0  0
   -6.7580   -0.9360  -17.7790 N   0  0  0  0  0  0  0  0  0  0  0  0
   -1.8750   -2.3510  -17.8730 C   0  0  2  0  0  0  0  0  0  0  0  0
   -5.0000   -2.1380  -16.8850 N   0  0  0  0  0  0  0  0  0  0  0  0
   -4.5630   -0.1310  -20.0690 C   0  0  0  0  0  0  0  0  0  0  0  0
   -8.3240   -2.3150  -17.2500 C   0  0  0  0  0  0  0  0  0  0  0  0
   -7.2090   -2.6900  -16.4070 C   0  0  0  0  0  0  0  0  0  0  0  0
  1  3  1  0
  3 20  1  1
  3  7  1  0
  4  1  1  1
  4 18  1  0
  5  4  1  0
  5 15  1  0
  6  2  2  0
  7  6  1  0
  7 19  1  6
  8 12  1  0
 10  8  2  0
 11 19  1  0
 11 22  1  0
 12 13  2  0
 13  9  1  0
 15 14  1  0
 16 17  1  0
 16 21  2  0
 17 11  2  0
 18 14  1  1
 18  6  1  0
 21  8  1  0
 21 22  1  0
 22  9  2  0
M  END
>  <rank>  (4) 
4

>  <composite_score>  (4) 
0.6264

>  <smiles>  (4) 
CC1CC2CCCC2C(=O)C1NC1=NN=C2C(=O)N=CN=C12

$$$$
3pbq_imipenem_iter1_filtered_140
     RDKit          3D

 19 21  0  0  0  0  0  0  0  0999 V2000
   -4.1860   -2.9820  -16.3020 C   0  0  0  0  0  0  0  0  0  0  0  0
   -5.7990   -1.5130  -17.9840 C   0  0  0  0  0  0  0  0  0  0  0  0
    0.1590    0.1400  -20.3090 O   0  0  0  0  0  0  0  0  0  0  0  0
   -9.4160   -3.4090  -16.8490 F   0  0  0  0  0  0  0  0  0  0  0  0
   -3.2870   -1.4560  -18.1520 C   0  0  0  0  0  0  0  0  0  0  0  0
   -4.6420   -1.1260  -18.6780 C   0  0  0  0  0  0  0  0  0  0  0  0
    0.0940    0.5390  -18.8040 C   0  0  0  0  0  0  0  0  0  0  0  0
   -8.3950   -2.6730  -17.0090 C   0  0  0  0  0  0  0  0  0  0  0  0
   -0.6510   -0.7070  -18.2040 C   0  0  0  0  0  0  0  0  0  0  0  0
   -7.1450   -0.9230  -18.3830 C   0  0  0  0  0  0  0  0  0  0  0  0
   -1.4960   -1.7440  -19.7450 C   0  0  0  0  0  0  0  0  0  0  0  0
   -3.0480   -2.0450  -16.8410 C   0  0  0  0  0  0  0  0  0  0  0  0
   -8.3500   -1.3440  -17.9220 C   0  0  0  0  0  0  0  0  0  0  0  0
   -1.9190   -1.7670  -16.1890 O   0  0  0  0  0  0  0  0  0  0  0  0
   -7.1850   -3.0580  -16.4550 C   0  0  0  0  0  0  0  0  0  0  0  0
   -5.7330   -2.6160  -16.8120 C   0  0  0  0  0  0  0  0  0  0  0  0
   -0.7390   -0.9440  -20.8830 C   0  0  0  0  0  0  0  0  0  0  0  0
   -1.7970   -1.2230  -18.6390 N   0  0  0  0  0  0  0  0  0  0  0  0
   -7.5600   -3.9140  -15.2630 Cl  0  0  0  0  0  0  0  0  0  0  0  0
  2 16  2  0
  3  7  1  0
  5 12  1  0
  6  5  2  0
  6  2  1  0
  7  9  1  0
  8  4  1  0
  8 15  2  0
 10  2  1  0
 10 13  2  0
 11 18  1  0
 12  1  2  0
 12 14  1  0
 13  8  1  0
 15 19  1  0
 16 15  1  0
 16  1  1  0
 17  3  1  0
 17 11  1  0
 18  9  1  0
 18  5  1  0
M  END
>  <rank>  (5) 
5

>  <composite_score>  (5) 
0.6246

>  <smiles>  (5) 
Oc1cc2c(Cl)c(F)ccc2cc1N1CCOCC1

$$$$
3pbq_imipenem_iter1_filtered_294
     RDKit          3D

 19 22  0  0  0  0  0  0  0  0999 V2000
   -6.0940   -2.5500  -16.5880 C   0  0  0  0  0  0  0  0  0  0  0  0
   -2.6910   -0.4420  -19.2200 N   0  0  0  0  0  0  0  0  0  0  0  0
   -7.4680   -1.7290  -18.4940 C   0  0  0  0  0  0  0  0  0  0  0  0
   -4.0550   -0.8070  -19.3730 C   0  0  0  0  0  0  0  0  0  0  0  0
   -4.8140   -2.1380  -17.0760 C   0  0  0  0  0  0  0  0  0  0  0  0
   -4.8910   -1.5020  -18.3850 C   0  0  0  0  0  0  0  0  0  0  0  0
   -7.3110   -2.3450  -17.2470 C   0  0  0  0  0  0  0  0  0  0  0  0
   -2.1060   -1.0210  -18.1350 C   0  0  0  0  0  0  0  0  0  0  0  0
   -8.2910   -2.8860  -16.4310 N   0  0  0  0  0  0  0  0  0  0  0  0
   -7.6910   -3.3290  -15.2980 C   0  0  0  0  0  0  0  0  0  0  0  0
   -0.0770   -1.3340  -16.8940 C   0  0  0  0  0  0  0  0  0  0  0  0
   -6.4110   -3.1400  -15.3820 N   0  0  0  0  0  0  0  0  0  0  0  0
   -4.7590   -0.4920  -20.4430 N   0  0  0  0  0  0  0  0  0  0  0  0
   -0.7660   -0.9250  -17.7980 C   0  0  0  0  0  0  0  0  0  0  0  0
   -2.3350   -2.1770  -16.0780 C   0  0  0  0  0  0  0  0  0  0  0  0
   -2.8210   -1.6530  -17.2200 C   0  0  0  0  0  0  0  0  0  0  0  0
   -6.2170   -1.3710  -19.0070 C   0  0  0  0  0  0  0  0  0  0  0  0
   -6.0280   -0.7560  -20.2930 N   0  0  0  0  0  0  0  0  0  0  0  0
   -1.0460   -1.9270  -16.0070 C   0  0  0  0  0  0  0  0  0  0  0  0
  1 12  2  0
  2  8  1  0
  3  7  2  0
  4  2  1  0
  4  6  1  0
  5  1  1  0
  6  5  2  0
  7  1  1  0
  7  9  1  0
  8 14  2  0
  8 16  1  0
  9 10  2  0
 11 19  2  0
 12 10  1  0
 13 18  1  0
 13  4  2  0
 14 11  1  0
 15 19  1  0
 16 15  2  0
 17  3  1  0
 17  6  1  0
 18 17  2  0
M  END
>  <rank>  (6) 
6

>  <composite_score>  (6) 
0.6238

>  <smiles>  (6) 
C1=Nc2cc3c(cc2=N1)C(Nc1ccccc1)=NN=3

$$$$
3pbq_imipenem_iter1_filtered_194
     RDKit          3D

 17 18  0  0  0  0  0  0  0  0999 V2000
   -7.1650   -1.0030  -19.3920 F   0  0  0  0  0  0  0  0  0  0  0  0
   -5.1430   -3.3590  -15.9630 O   0  0  0  0  0  0  0  0  0  0  0  0
   -5.1390   -0.9790  -17.6880 N   0  0  0  0  0  0  0  0  0  0  0  0
   -7.5020   -3.1290  -15.9390 C   0  0  0  0  0  0  0  0  0  0  0  0
   -7.3360   -1.5100  -18.2030 C   0  0  0  0  0  0  0  0  0  0  0  0
   -1.4340   -0.4320  -18.2780 C   0  0  0  0  0  0  0  0  0  0  0  0
   -3.8830   -1.0790  -17.8190 C   0  0  0  0  0  0  0  0  0  0  0  0
   -3.5800   -1.0420  -19.1390 C   0  0  0  0  0  0  0  0  0  0  0  0
   -0.3610   -0.3850  -16.1490 C   0  0  0  0  0  0  0  0  0  0  0  0
   -6.2400   -1.7960  -17.4030 C   0  0  0  0  0  0  0  0  0  0  0  0
   -8.6170   -1.8500  -17.6630 C   0  0  0  0  0  0  0  0  0  0  0  0
   -1.5180   -0.7240  -16.7670 C   0  0  0  0  0  0  0  0  0  0  0  0
   -8.6120   -2.5860  -16.5690 C   0  0  0  0  0  0  0  0  0  0  0  0
   -2.2920   -0.6750  -19.2990 C   0  0  0  0  0  0  0  0  0  0  0  0
   -7.5120   -4.0070  -14.9190 O   0  0  0  0  0  0  0  0  0  0  0  0
   -2.9800   -0.9650  -16.8530 C   0  0  0  0  0  0  0  0  0  0  0  0
   -6.2580   -2.7210  -16.4400 C   0  0  0  0  0  0  0  0  0  0  0  0
  1  5  1  0
  3 10  1  0
  4 15  1  0
  5 11  2  0
  5 10  1  0
  6 12  2  0
  7  3  1  0
  7 16  2  0
  8  7  1  0
 10 17  2  0
 11 13  1  0
 12  9  1  0
 13  4  2  0
 14  8  2  0
 14  6  1  0
 16 12  1  0
 17  2  1  0
 17  4  1  0
M  END
>  <rank>  (7) 
7

>  <composite_score>  (7) 
0.6222

>  <smiles>  (7) 
Cc1cccc(Nc2c(F)ccc(O)c2O)c1

$$$$
3pbq_imipenem_iter1_filtered_330
     RDKit          3D

 20 23  0  0  0  0  0  0  0  0999 V2000
   -7.5140   -3.7420  -15.0150 C   0  0  0  0  0  0  0  0  0  0  0  0
   -4.4730   -0.8230  -19.0060 C   0  0  0  0  0  0  0  0  0  0  0  0
   -3.9610   -1.6390  -16.8190 C   0  0  0  0  0  0  0  0  0  0  0  0
   -5.3480   -0.5810  -20.0170 O   0  0  0  0  0  0  0  0  0  0  0  0
   -8.6300   -3.3160  -15.8350 C   0  0  0  0  0  0  0  0  0  0  0  0
   -7.1610   -1.9160  -18.6710 C   0  0  0  0  0  0  0  0  0  0  0  0
   -4.8600   -1.4520  -17.8410 C   0  0  0  0  0  0  0  0  0  0  0  0
   -0.3540   -0.0790  -19.7560 C   0  0  0  0  0  0  0  0  0  0  0  0
   -3.1120   -0.4090  -19.2000 C   0  0  0  0  0  0  0  0  0  0  0  0
   -2.6480   -1.1590  -17.0270 C   0  0  0  0  0  0  0  0  0  0  0  0
   -0.8370   -0.1970  -18.2360 C   0  0  0  0  0  0  0  0  0  0  0  0
   -8.3580   -2.1300  -18.0950 N   0  0  0  0  0  0  0  0  0  0  0  0
   -6.1460   -1.9500  -17.7780 N   0  0  0  0  0  0  0  0  0  0  0  0
   -2.8520    0.2990  -20.4290 C   0  0  0  0  0  0  0  0  0  0  0  0
   -6.3440   -3.3290  -15.5760 N   0  0  0  0  0  0  0  0  0  0  0  0
   -6.6500   -2.5920  -16.6980 C   0  0  0  0  0  0  0  0  0  0  0  0
   -1.3610    0.5570  -20.6690 C   0  0  0  0  0  0  0  0  0  0  0  0
   -2.2350   -0.7440  -18.2630 C   0  0  0  0  0  0  0  0  0  0  0  0
   -7.1880   -1.8560  -19.9210 O   0  0  0  0  0  0  0  0  0  0  0  0
   -8.0260   -2.6190  -16.8570 C   0  0  0  0  0  0  0  0  0  0  0  0
  2  7  2  0
  4  2  1  0
  5  1  2  0
  6 12  1  0
  6 13  1  0
  7 13  1  0
  7  3  1  0
  8 11  1  0
  9  2  1  0
  9 18  2  0
 10  3  2  0
 12 20  2  0
 13 16  1  0
 14  9  1  0
 15  1  1  0
 16 15  2  0
 17 14  1  0
 17  8  1  0
 18 11  1  0
 18 10  1  0
 19  6  2  0
 20 16  1  0
 20  5  1  0
M  END
>  <rank>  (8) 
8

>  <composite_score>  (8) 
0.6171

>  <smiles>  (8) 
O=C1N=C2C=CN=C2N1c1ccc2c(c1O)CCCC2

$$$$
3pbq_imipenem_iter1_filtered_76
     RDKit          3D

 22 25  0  0  0  0  0  0  0  0999 V2000
   -9.0980   -2.5440  -17.2110 C   0  0  0  0  0  0  0  0  0  0  0  0
   -2.3270   -3.2370  -15.1540 C   0  0  0  0  0  0  0  0  0  0  0  0
   -7.5800   -2.4860  -17.4570 C   0  0  0  0  0  0  0  0  0  0  0  0
   -3.5740   -2.2700  -17.0500 C   0  0  0  0  0  0  0  0  0  0  0  0
   -1.3610   -1.2900  -17.3160 C   0  0  0  0  0  0  0  0  0  0  0  0
   -2.6980   -1.5090  -17.8390 C   0  0  0  0  0  0  0  0  0  0  0  0
   -4.8800   -2.2910  -17.3420 C   0  0  0  0  0  0  0  0  0  0  0  0
   -7.6960   -4.6080  -14.8490 O   0  0  0  0  0  0  0  0  0  0  0  0
   -6.9520   -1.8790  -18.5390 C   0  0  0  0  0  0  0  0  0  0  0  0
   -0.6180   -0.1410  -17.9960 N   0  0  0  0  0  0  0  0  0  0  0  0
   -2.9900   -1.2010  -19.1120 O   0  0  0  0  0  0  0  0  0  0  0  0
   -1.1260   -2.5970  -15.2000 C   0  0  0  0  0  0  0  0  0  0  0  0
   -1.9140   -0.8830  -20.0420 C   0  0  0  0  0  0  0  0  0  0  0  0
   -7.5810   -1.3090  -19.4980 O   0  0  0  0  0  0  0  0  0  0  0  0
   -5.5290   -1.8240  -18.4380 C   0  0  0  0  0  0  0  0  0  0  0  0
   -0.7570   -1.7840  -16.2130 C   0  0  0  0  0  0  0  0  0  0  0  0
   -5.6060   -3.0590  -16.4400 C   0  0  0  0  0  0  0  0  0  0  0  0
   -3.3040   -2.9800  -16.0300 C   0  0  0  0  0  0  0  0  0  0  0  0
   -9.2030   -3.4110  -16.0750 N   0  0  0  0  0  0  0  0  0  0  0  0
   -7.9250   -3.7730  -15.6940 C   0  0  0  0  0  0  0  0  0  0  0  0
   -6.9540   -3.1130  -16.4310 C   0  0  0  0  0  0  0  0  0  0  0  0
   -0.6330   -0.2830  -19.4480 C   0  0  0  0  0  0  0  0  0  0  0  0
  1 19  2  0
  3  1  1  0
  3 21  2  0
  4 18  1  0
  5 16  2  0
  6  5  1  0
  6  4  2  0
  7  4  1  0
  7 17  2  0
  9 15  2  0
  9  3  1  0
 10  5  1  0
 11  6  1  0
 12  2  1  0
 13 22  2  0
 13 11  1  0
 14  9  1  0
 15  7  1  0
 16 12  1  0
 17 21  1  0
 18  2  2  0
 19 20  1  0
 20  8  2  0
 21 20  1  0
 22 10  1  0
M  END
>  <rank>  (9) 
9

>  <composite_score>  (9) 
0.6096

>  <smiles>  (9) 
O=C1N=Cc2c(O)cc(C3=C4OC=CNC4=CCC=C3)cc21

$$$$
3pbq_imipenem_iter1_filtered_113
     RDKit          3D

 21 23  0  0  0  0  0  0  0  0999 V2000
   -6.6780   -2.6680  -16.6880 C   0  0  0  0  0  0  0  0  0  0  0  0
   -8.8830   -3.2640  -16.2840 N   0  0  0  0  0  0  0  0  0  0  0  0
   -9.1590   -2.5720  -17.3980 C   0  0  0  0  0  0  0  0  0  0  0  0
   -2.6360   -2.0590  -17.9080 C   0  0  0  0  0  0  0  0  0  0  0  0
    0.5190   -1.3580  -20.4300 C   0  0  0  0  0  0  0  0  0  0  0  0
   -0.7420   -0.2300  -20.2130 C   0  0  0  0  0  0  0  0  0  0  0  0
   -4.9160   -1.7260  -17.7160 C   0  0  0  0  0  0  0  0  0  0  0  0
   -8.3580   -1.9560  -18.2320 N   0  0  0  0  0  0  0  0  0  0  0  0
    0.9590   -1.3470  -18.9600 C   0  0  0  0  0  0  0  0  0  0  0  0
   -3.6820   -1.1930  -18.0040 N   0  0  0  0  0  0  0  0  0  0  0  0
   -7.0710   -1.9430  -17.8710 C   0  0  0  0  0  0  0  0  0  0  0  0
   -7.2800   -3.9920  -14.9370 O   0  0  0  0  0  0  0  0  0  0  0  0
    0.0410   -2.0570  -16.5620 C   0  0  0  0  0  0  0  0  0  0  0  0
   -7.6100   -3.2970  -15.8790 C   0  0  0  0  0  0  0  0  0  0  0  0
   -0.0830   -2.1890  -18.0500 C   0  0  1  0  0  0  0  0  0  0  0  0
   -0.9880   -0.4620  -18.7250 C   0  0  0  0  0  0  0  0  0  0  0  0
   -5.1950   -2.5090  -16.6250 C   0  0  0  0  0  0  0  0  0  0  0  0
   -5.8970   -1.4490  -18.4710 N   0  0  0  0  0  0  0  0  0  0  0  0
   -1.3860   -1.4360  -18.3780 C   0  0  2  0  0  0  0  0  0  0  0  0
   -0.0170   -3.5370  -18.6190 C   0  0  0  0  0  0  0  0  0  0  0  0
   -2.5120   -3.1070  -17.4070 O   0  0  0  0  0  0  0  0  0  0  0  0
  1 17  2  0
  1 14  1  0
  2 14  1  0
  3  2  2  0
  4 21  2  0
  5  6  1  0
  5  9  1  0
  6 16  1  0
  7 17  1  0
  8 11  2  0
  8  3  1  0
  9 15  1  0
 10  4  1  0
 10  7  1  0
 11  1  1  0
 14 12  2  0
 15 13  1  1
 16 19  1  0
 18 11  1  0
 18  7  2  0
 19 15  1  0
 19  4  1  1
 20 15  1  0
M  END
>  <rank>  (10) 
10

>  <composite_score>  (10) 
0.6081

>  <smiles>  (10) 
CC1(C)CCCCC1C(=O)NC1=NC2=NC=NC(=O)C2=C1

$$$$
3pbq_imipenem_iter1_filtered_112
     RDKit          3D

 21 23  0  0  0  0  0  0  0  0999 V2000
   -2.7420   -1.1100  -19.8830 C   0  0  0  0  0  0  0  0  0  0  0  0
   -3.5330   -0.5990  -20.6180 C   0  0  0  0  0  0  0  0  0  0  0  0
   -1.8040   -1.7010  -18.9240 C   0  0  2  0  0  0  0  0  0  0  0  0
   -4.8240   -2.2300  -17.7780 C   0  0  0  0  0  0  0  0  0  0  0  0
   -2.0940   -3.3950  -16.6190 C   0  0  0  0  0  0  0  0  0  0  0  0
   -8.1720   -3.3030  -15.5270 O   0  0  0  0  0  0  0  0  0  0  0  0
   -3.4430   -2.9090  -15.8480 C   0  0  2  0  0  0  0  0  0  0  0  0
   -7.0790   -2.8080  -16.2520 C   0  0  0  0  0  0  0  0  0  0  0  0
   -7.2260   -1.9280  -17.3840 C   0  0  0  0  0  0  0  0  0  0  0  0
   -0.0530   -0.3840  -17.4830 O   0  0  0  0  0  0  0  0  0  0  0  0
   -6.1640   -1.2610  -19.1240 F   0  0  0  0  0  0  0  0  0  0  0  0
   -1.2350    0.7340  -18.7930 C   0  0  0  0  0  0  0  0  0  0  0  0
   -4.7400   -2.8550  -16.5940 C   0  0  1  0  0  0  0  0  0  0  0  0
   -1.8090   -1.6310  -17.6390 C   0  0  1  0  0  0  0  0  0  0  0  0
   -7.7760   -4.5570  -15.0440 O   0  0  0  0  0  0  0  0  0  0  0  0
   -8.4960   -1.3230  -17.7250 C   0  0  0  0  0  0  0  0  0  0  0  0
   -1.3420   -0.4820  -18.2030 C   0  0  1  0  0  0  0  0  0  0  0  0
   -2.4100   -2.0240  -16.4770 C   0  0  2  0  0  0  0  0  0  0  0  0
   -6.0300   -1.8040  -18.0620 C   0  0  0  0  0  0  0  0  0  0  0  0
   -1.3050    1.9480  -17.5290 S   0  0  0  0  0  0  0  0  0  0  0  0
   -5.8120   -3.2070  -15.8140 N   0  0  0  0  0  0  0  0  0  0  0  0
  2  1  3  0
  3  1  1  6
  3 17  1  0
  3 14  1  0
  6 15  1  0
  7  5  1  6
  8 21  2  0
  8  6  1  0
  9 16  1  0
  9  8  1  0
 11 19  1  0
 12 17  1  0
 12 20  1  0
 13  4  1  1
 13  7  1  0
 13 21  1  0
 14 18  1  6
 17 14  1  0
 17 10  1  1
 18  5  1  1
 18  7  1  0
 19  4  2  0
 19  9  1  0
M  END
>  <rank>  (11) 
11

>  <composite_score>  (11) 
0.6049

>  <smiles>  (11) 
C#CC1C(C2CC2C2C=C(F)C(C)C(OO)=N2)C1(O)CS

$$$$
3pbq_imipenem_iter1_filtered_42
     RDKit          3D

 21 22  0  0  0  0  0  0  0  0999 V2000
   -3.7130   -1.9450  -17.0240 C   0  0  2  0  0  0  0  0  0  0  0  0
   -3.4040   -3.1810  -16.6200 C   0  0  0  0  0  0  0  0  0  0  0  0
   -6.4080   -1.9520  -17.1960 C   0  0  0  0  0  0  0  0  0  0  0  0
   -8.9490   -4.3780  -16.0820 O   0  0  0  0  0  0  0  0  0  0  0  0
    0.2050   -2.2150  -19.8500 C   0  0  0  0  0  0  0  0  0  0  0  0
   -8.5220   -1.3030  -17.9330 C   0  0  0  0  0  0  0  0  0  0  0  0
   -5.1020   -1.5040  -17.0510 C   0  0  0  0  0  0  0  0  0  0  0  0
   -9.1470   -2.2330  -17.1780 C   0  0  0  0  0  0  0  0  0  0  0  0
   -8.3480   -3.2420  -16.5280 C   0  0  0  0  0  0  0  0  0  0  0  0
   -6.2390   -3.7900  -15.4750 O   0  0  0  0  0  0  0  0  0  0  0  0
   -1.6080   -3.2310  -18.1280 C   0  0  0  0  0  0  0  0  0  0  0  0
  -10.4500   -2.1860  -17.0170 O   0  0  0  0  0  0  0  0  0  0  0  0
   -2.4300   -3.7640  -17.1980 C   0  0  0  0  0  0  0  0  0  0  0  0
   -7.1910   -1.2610  -18.1100 C   0  0  0  0  0  0  0  0  0  0  0  0
   -0.9780   -1.4170  -19.4610 C   0  0  0  0  0  0  0  0  0  0  0  0
   -9.2140   -0.3790  -18.4420 F   0  0  0  0  0  0  0  0  0  0  0  0
   -6.6900   -0.4810  -19.1460 F   0  0  0  0  0  0  0  0  0  0  0  0
   -6.9550   -2.9820  -16.4400 C   0  0  0  0  0  0  0  0  0  0  0  0
   -1.4170   -0.4640  -20.1500 O   0  0  0  0  0  0  0  0  0  0  0  0
   -1.8090   -1.9470  -18.3480 C   0  0  0  0  0  0  0  0  0  0  0  0
   -2.7560   -1.1740  -17.5610 C   0  0  0  0  0  0  0  0  0  0  0  0
  1  7  1  6
  1  2  1  0
  3  7  1  0
  3 18  1  0
  5 15  1  0
  6  8  2  0
  8 12  1  0
  8  9  1  0
  9 18  2  0
  9  4  1  0
 11 13  1  0
 13  2  2  0
 14  6  1  0
 14  3  2  0
 16  6  1  0
 17 14  1  0
 18 10  1  0
 19 15  2  0
 20 15  1  0
 20 11  1  0
 20 21  1  0
 21  1  1  0
M  END
>  <rank>  (12) 
12

>  <composite_score>  (12) 
0.6009

>  <smiles>  (12) 
CC(=O)C1CC=CC(Cc2c(O)c(O)c(O)c(F)c2F)C1

$$$$
3pbq_imipenem_iter1_filtered_21
     RDKit          3D

 22 25  0  0  0  0  0  0  0  0999 V2000
   -4.3920   -2.9240  -16.0240 N   0  0  0  0  0  0  0  0  0  0  0  0
   -6.8210   -1.1510  -18.9640 C   0  0  0  0  0  0  0  0  0  0  0  0
   -0.4200    0.4980  -19.6740 C   0  0  0  0  0  0  0  0  0  0  0  0
   -9.3990   -4.2290  -15.2450 O   0  0  0  0  0  0  0  0  0  0  0  0
   -8.8800   -1.5750  -17.6430 O   0  0  0  0  0  0  0  0  0  0  0  0
   -9.5600   -2.7160  -17.0690 C   0  0  0  0  0  0  0  0  0  0  0  0
   -0.9530   -0.5770  -20.5240 C   0  0  0  0  0  0  0  0  0  0  0  0
   -5.1540   -2.2250  -16.9050 C   0  0  0  0  0  0  0  0  0  0  0  0
   -3.2570   -1.0120  -17.8400 C   0  0  0  0  0  0  0  0  0  0  0  0
   -1.7700   -0.7650  -16.2300 F   0  0  0  0  0  0  0  0  0  0  0  0
   -8.7960   -3.4410  -16.0420 C   0  0  0  0  0  0  0  0  0  0  0  0
   -3.1010   -2.5860  -15.9930 C   0  0  0  0  0  0  0  0  0  0  0  0
   -7.3430   -3.3470  -15.9390 C   0  0  0  0  0  0  0  0  0  0  0  0
   -2.6540   -1.4220  -16.6890 C   0  0  0  0  0  0  0  0  0  0  0  0
   -2.4680   -0.6860  -20.2240 C   0  0  0  0  0  0  0  0  0  0  0  0
   -4.5720   -1.3670  -17.9760 C   0  0  0  0  0  0  0  0  0  0  0  0
   -2.5450   -0.2790  -18.8240 N   0  0  0  0  0  0  0  0  0  0  0  0
   -6.6390   -2.3610  -16.8780 C   0  0  0  0  0  0  0  0  0  0  0  0
   -5.4540   -1.0490  -19.0070 C   0  0  0  0  0  0  0  0  0  0  0  0
   -7.4200   -1.7380  -17.8330 C   0  0  0  0  0  0  0  0  0  0  0  0
   -1.4730    0.7360  -18.4820 C   0  0  0  0  0  0  0  0  0  0  0  0
   -2.1780   -3.4470  -15.2660 C   0  0  0  0  0  0  0  0  0  0  0  0
  1 12  2  0
  2 20  2  0
  3 21  1  0
  5  6  1  0
  6 11  1  0
  7 15  1  0
  7  3  1  0
  8 18  2  0
  8  1  1  0
  9 14  2  0
 11 13  1  0
 11  4  2  0
 12 22  1  0
 14 10  1  0
 14 12  1  0
 15 17  1  0
 16  9  1  0
 16  8  1  0
 17 21  1  0
 17  9  1  0
 18 13  1  0
 19  2  1  0
 19 16  2  0
 20  5  1  0
 20 18  1  0
M  END
>  <rank>  (13) 
13

>  <composite_score>  (13) 
0.5976

>  <smiles>  (13) 
Cc1nc2c3c(ccc2c(N2CCCC2)c1F)OCC(=O)C3

$$$$
3pbq_imipenem_iter1_filtered_111
     RDKit          3D

 20 22  0  0  0  0  0  0  0  0999 V2000
   -5.2990   -2.4510  -16.6540 C   0  0  0  0  0  0  0  0  0  0  0  0
   -3.3620   -3.0060  -15.9850 N   0  0  0  0  0  0  0  0  0  0  0  0
   -0.1990   -1.6470  -19.8370 C   0  0  0  0  0  0  0  0  0  0  0  0
    0.6990   -1.9550  -20.9260 N   0  0  0  0  0  0  0  0  0  0  0  0
   -0.0340   -2.5270  -18.7430 C   0  0  0  0  0  0  0  0  0  0  0  0
   -8.5520   -1.2720  -17.9700 C   0  0  0  0  0  0  0  0  0  0  0  0
   -6.6610   -2.4080  -16.9300 C   0  0  0  0  0  0  0  0  0  0  0  0
   -8.8710   -3.2210  -16.5420 C   0  0  0  0  0  0  0  0  0  0  0  0
   -2.1660   -0.8690  -18.8570 C   0  0  0  0  0  0  0  0  0  0  0  0
   -1.0140   -2.5980  -17.7780 C   0  0  0  0  0  0  0  0  0  0  0  0
   -2.0930   -1.7690  -17.8480 C   0  0  0  0  0  0  0  0  0  0  0  0
   -7.2050   -1.4730  -17.8820 C   0  0  0  0  0  0  0  0  0  0  0  0
   -9.6610   -4.2630  -16.0920 O   0  0  0  0  0  0  0  0  0  0  0  0
   -4.6580   -0.6560  -17.9820 F   0  0  0  0  0  0  0  0  0  0  0  0
   -9.4060   -2.1500  -17.2680 C   0  0  0  0  0  0  0  0  0  0  0  0
   -1.1570   -0.7540  -19.8600 C   0  0  0  0  0  0  0  0  0  0  0  0
   -4.4310   -1.5950  -17.2300 C   0  0  0  0  0  0  0  0  0  0  0  0
   -7.5110   -3.2490  -16.2830 C   0  0  0  0  0  0  0  0  0  0  0  0
   -3.2380   -2.1130  -16.9620 C   0  0  1  0  0  0  0  0  0  0  0  0
   -4.6740   -3.2480  -15.8370 N   0  0  0  0  0  0  0  0  0  0  0  0
  1 20  1  0
  2 20  1  0
  3  5  2  0
  4  3  1  0
  5 10  1  0
  6 12  2  0
  6 15  1  0
  7  1  1  0
  7 18  2  0
  8 18  1  0
  8 13  1  0
  9 11  1  0
 11 10  2  0
 12  7  1  0
 14 17  1  0
 15  8  2  0
 16  3  1  0
 16  9  2  0
 17 19  1  0
 17  1  2  0
 19 11  1  6
 19  2  1  0
M  END
>  <rank>  (14) 
14

>  <composite_score>  (14) 
0.5949

>  <smiles>  (14) 
Nc1ccc(C2NNC(c3cccc(O)c3)=C2F)cc1

$$$$
3pbq_imipenem_iter1_filtered_65
     RDKit          3D

 19 20  0  0  0  0  0  0  0  0999 V2000
   -1.6280   -1.0390  -20.2070 O   0  0  0  0  0  0  0  0  0  0  0  0
   -6.3210   -1.5350  -18.2920 C   0  0  0  0  0  0  0  0  0  0  0  0
   -1.3290   -1.4290  -17.8800 C   0  0  0  0  0  0  0  0  0  0  0  0
   -5.4440   -2.0110  -17.3870 C   0  0  0  0  0  0  0  0  0  0  0  0
   -7.7040   -3.6080  -14.9220 O   0  0  0  0  0  0  0  0  0  0  0  0
   -3.4990   -1.3350  -18.8290 C   0  0  0  0  0  0  0  0  0  0  0  0
   -3.1810   -1.9060  -16.4740 C   0  0  0  0  0  0  0  0  0  0  0  0
   -8.1210   -2.3400  -16.9500 C   0  0  0  0  0  0  0  0  0  0  0  0
   -4.0150   -1.7340  -17.5550 C   0  0  0  0  0  0  0  0  0  0  0  0
   -7.2300   -2.9590  -16.0690 C   0  0  0  0  0  0  0  0  0  0  0  0
   -2.0970   -1.2400  -18.9940 C   0  0  0  0  0  0  0  0  0  0  0  0
   -9.4970   -2.5120  -16.6890 O   0  0  0  0  0  0  0  0  0  0  0  0
   -5.9160   -0.9340  -19.4240 F   0  0  0  0  0  0  0  0  0  0  0  0
   -5.1050   -3.4400  -15.4000 F   0  0  0  0  0  0  0  0  0  0  0  0
   -5.9040   -2.7890  -16.3150 C   0  0  0  0  0  0  0  0  0  0  0  0
   -1.8540   -1.7020  -16.6120 C   0  0  0  0  0  0  0  0  0  0  0  0
   -0.2590   -1.5320  -20.5340 C   0  0  0  0  0  0  0  0  0  0  0  0
   -8.3400   -1.0710  -18.8100 F   0  0  0  0  0  0  0  0  0  0  0  0
   -7.6170   -1.6900  -17.9580 C   0  0  0  0  0  0  0  0  0  0  0  0
  1 11  1  0
  2 19  2  0
  2  4  1  0
  3 16  2  0
  4 15  2  0
  6  9  1  0
  8 12  1  0
  8 10  2  0
  9  4  1  0
  9  7  2  0
 10  5  1  0
 11  6  2  0
 11  3  1  0
 13  2  1  0
 15 10  1  0
 15 14  1  0
 16  7  1  0
 17  1  1  0
 18 19  1  0
 19  8  1  0
M  END
>  <rank>  (15) 
15

>  <composite_score>  (15) 
0.5928

>  <smiles>  (15) 
COc1cccc(-c2c(F)c(O)c(O)c(F)c2F)c1

$$$$
3pbq_imipenem_iter1_filtered_218
     RDKit          3D

 22 25  0  0  0  0  0  0  0  0999 V2000
   -7.0390   -1.7930  -17.6280 C   0  0  1  0  0  0  0  0  0  0  0  0
   -7.0320   -2.7780  -19.7920 C   0  0  0  0  0  0  0  0  0  0  0  0
   -1.5610    0.2000  -19.9510 C   0  0  0  0  0  0  0  0  0  0  0  0
   -8.5900   -1.7650  -16.9530 C   0  0  0  0  0  0  0  0  0  0  0  0
   -2.8240    0.1640  -20.5230 C   0  0  0  0  0  0  0  0  0  0  0  0
   -5.3210   -3.5710  -16.9670 C   0  0  0  0  0  0  0  0  0  0  0  0
   -3.5310   -1.1310  -18.7320 C   0  0  0  0  0  0  0  0  0  0  0  0
   -8.6690   -2.8030  -16.0370 N   0  0  0  0  0  0  0  0  0  0  0  0
   -2.2310   -1.2110  -18.1330 C   0  0  0  0  0  0  0  0  0  0  0  0
   -7.4450   -3.3530  -15.8750 C   0  0  0  0  0  0  0  0  0  0  0  0
   -3.1590   -2.9770  -16.6710 C   0  0  0  0  0  0  0  0  0  0  0  0
   -7.2090   -4.1820  -15.0000 O   0  0  0  0  0  0  0  0  0  0  0  0
   -4.6560   -1.4890  -17.6710 C   0  0  1  0  0  0  0  0  0  0  0  0
   -5.8670   -0.9970  -17.9370 C   0  0  0  0  0  0  0  0  0  0  0  0
   -9.5570   -0.9790  -17.2250 C   0  0  0  0  0  0  0  0  0  0  0  0
   -3.7920   -0.3040  -19.8250 C   0  0  0  0  0  0  0  0  0  0  0  0
    0.0480   -0.1760  -18.3180 O   0  0  0  0  0  0  0  0  0  0  0  0
   -6.5340   -2.9240  -16.7360 C   0  0  2  0  0  0  0  0  0  0  0  0
   -2.0090   -1.9420  -16.8910 C   0  0  0  0  0  0  0  0  0  0  0  0
   -1.3600   -0.3940  -18.7790 C   0  0  0  0  0  0  0  0  0  0  0  0
   -4.2440   -2.8140  -17.6150 C   0  0  2  0  0  0  0  0  0  0  0  0
   -7.5110   -2.2450  -18.7720 C   0  0  0  0  0  0  0  0  0  0  0  0
  1 22  1  6
  1  4  1  0
  1 18  1  0
  2 22  2  0
  3 20  2  0
  4  8  1  0
  5  3  1  0
  5 16  2  0
  7  9  2  0
  7 13  1  0
  8 10  1  0
  9 19  1  0
 10 12  2  0
 13 14  1  6
 13 21  1  0
 14  1  1  0
 15  4  2  0
 16  7  1  0
 18  6  1  6
 18 10  1  0
 19 11  1  0
 20 17  1  0
 20  9  1  0
 21  6  1  1
 21 11  1  0
M  END
>  <rank>  (16) 
16

>  <composite_score>  (16) 
0.5869

>  <smiles>  (16) 
C=CC12CC3c4cccc(O)c4CCC3CC1C(=O)NC2=C

$$$$
3pbq_imipenem_iter1_filtered_46
     RDKit          3D

 20 22  0  0  0  0  0  0  0  0999 V2000
   -5.1700   -2.1460  -16.7010 C   0  0  0  0  0  0  0  0  0  0  0  0
   -9.2000   -2.5190  -17.4030 N   0  0  0  0  0  0  0  0  0  0  0  0
   -7.2310   -1.2780  -17.9200 C   0  0  0  0  0  0  0  0  0  0  0  0
   -9.1350   -4.3830  -16.0900 O   0  0  0  0  0  0  0  0  0  0  0  0
   -5.0980   -2.9680  -15.5850 C   0  0  0  0  0  0  0  0  0  0  0  0
   -0.7560   -1.6080  -16.8210 N   0  0  0  0  0  0  0  0  0  0  0  0
   -2.9830   -1.1290  -19.5150 C   0  0  0  0  0  0  0  0  0  0  0  0
   -8.5910   -3.3120  -16.5930 C   0  0  0  0  0  0  0  0  0  0  0  0
   -2.8500   -1.6390  -16.7650 C   0  0  0  0  0  0  0  0  0  0  0  0
   -1.7210   -1.3890  -18.8490 C   0  0  0  0  0  0  0  0  0  0  0  0
   -0.5110   -1.9180  -19.4030 F   0  0  0  0  0  0  0  0  0  0  0  0
   -4.1500   -1.2010  -18.6920 C   0  0  0  0  0  0  0  0  0  0  0  0
   -6.2840   -3.4580  -15.3250 N   0  0  0  0  0  0  0  0  0  0  0  0
   -4.0440   -1.6300  -17.4230 C   0  0  0  0  0  0  0  0  0  0  0  0
   -0.3590   -2.7890  -16.6640 O   0  0  0  0  0  0  0  0  0  0  0  0
   -6.5290   -2.1120  -17.0560 C   0  0  0  0  0  0  0  0  0  0  0  0
   -8.6060   -1.4630  -18.0190 C   0  0  0  0  0  0  0  0  0  0  0  0
   -7.1610   -3.0290  -16.3100 C   0  0  0  0  0  0  0  0  0  0  0  0
   -0.4520   -0.8050  -15.8370 O   0  0  0  0  0  0  0  0  0  0  0  0
   -1.7700   -1.4480  -17.4600 C   0  0  0  0  0  0  0  0  0  0  0  0
  1  5  1  0
  2  8  1  0
  3 16  1  0
  5 13  1  0
  6 15  1  0
  6 19  2  0
  7 10  2  0
  7 12  1  0
  8 18  1  0
  8  4  2  0
 10 20  1  0
 11 10  1  0
 12 14  2  0
 14  9  1  0
 14  1  1  0
 16  1  2  0
 16 18  1  0
 17  3  1  0
 17  2  2  0
 18 13  2  0
 20  6  1  0
 20  9  2  0
M  CHG  2   6   1  15  -1
M  END
>  <rank>  (17) 
17

>  <composite_score>  (17) 
0.5818

>  <smiles>  (17) 
O=C1N=CCC2=C(c3ccc(F)c([N+](=O)[O-])c3)CN=C12

$$$$
3pbq_imipenem_iter1_filtered_187
     RDKit          3D

 19 21  0  0  0  0  0  0  0  0999 V2000
   -1.7740   -1.6800  -18.5290 C   0  0  0  0  0  0  0  0  0  0  0  0
   -0.3390   -2.0790  -18.9660 C   0  0  2  0  0  0  0  0  0  0  0  0
   -8.3480   -2.5710  -16.8480 C   0  0  0  0  0  0  0  0  0  0  0  0
   -8.2390   -3.1910  -15.6780 N   0  0  0  0  0  0  0  0  0  0  0  0
   -4.6910   -2.1240  -17.5690 C   0  0  0  0  0  0  0  0  0  0  0  0
   -3.7050   -0.7740  -19.6170 C   0  0  0  0  0  0  0  0  0  0  0  0
   -4.8080   -1.3470  -18.8290 C   0  0  0  0  0  0  0  0  0  0  0  0
    0.1730   -1.6200  -17.7700 F   0  0  0  0  0  0  0  0  0  0  0  0
   -5.9960   -3.0900  -15.7440 C   0  0  0  0  0  0  0  0  0  0  0  0
   -6.0640   -1.0730  -19.4450 C   0  0  0  0  0  0  0  0  0  0  0  0
    0.0980   -0.9470  -20.0530 C   0  0  0  0  0  0  0  0  0  0  0  0
   -5.8910   -2.4450  -16.9780 C   0  0  0  0  0  0  0  0  0  0  0  0
   -7.0700   -3.4980  -15.1170 N   0  0  0  0  0  0  0  0  0  0  0  0
   -3.5070   -2.5010  -17.1050 N   0  0  0  0  0  0  0  0  0  0  0  0
   -7.1890   -2.1930  -17.5500 C   0  0  2  0  0  0  0  0  0  0  0  0
   -2.3310   -2.3380  -17.5380 C   0  0  0  0  0  0  0  0  0  0  0  0
   -7.2540   -1.4920  -18.7570 C   0  0  0  0  0  0  0  0  0  0  0  0
   -2.5760   -0.9520  -19.3830 C   0  0  0  0  0  0  0  0  0  0  0  0
   -0.4100   -1.3960  -21.4090 O   0  0  0  0  0  0  0  0  0  0  0  0
  1 16  1  0
  2  1  1  0
  2  8  1  1
  3  4  2  0
  4 13  1  0
  5 14  1  0
  5 12  2  0
  6 18  1  0
  6  7  2  0
  7  5  1  0
  9 13  2  0
 10  7  1  0
 10 17  2  0
 11  2  1  0
 12  9  1  0
 15 17  1  1
 15 12  1  0
 15  3  1  0
 16 14  2  0
 18  1  2  0
 19 11  1  0
M  END
>  <rank>  (18) 
18

>  <composite_score>  (18) 
0.5731

>  <smiles>  (18) 
OCC(F)C1=CC=C2C=CC3C=NN=CC3=C2N=C1

$$$$
3pbq_imipenem_iter1_filtered_191
     RDKit          3D

 20 24  0  0  0  0  0  0  0  0999 V2000
   -0.8770   -1.5610  -16.1730 C   0  0  0  0  0  0  0  0  0  0  0  0
   -3.8450   -2.3730  -16.9820 C   0  0  0  0  0  0  0  0  0  0  0  0
   -9.3950   -2.7000  -16.5310 N   0  0  0  0  0  0  0  0  0  0  0  0
   -0.7810   -0.6280  -18.6070 C   0  0  0  0  0  0  0  0  0  0  0  0
   -1.7970   -0.8590  -17.4530 C   0  0  2  0  0  0  0  0  0  0  0  0
   -4.6670   -3.1480  -16.0550 C   0  0  0  0  0  0  0  0  0  0  0  0
   -7.2430   -4.3220  -15.0770 O   0  0  0  0  0  0  0  0  0  0  0  0
   -1.8300   -3.2140  -18.2420 C   0  0  0  0  0  0  0  0  0  0  0  0
   -4.5250   -1.4030  -18.8090 C   0  0  0  0  0  0  0  0  0  0  0  0
   -1.3870   -0.2680  -16.1490 C   0  0  0  0  0  0  0  0  0  0  0  0
   -9.6350   -1.7000  -17.3550 C   0  0  0  0  0  0  0  0  0  0  0  0
   -4.9530   -1.8640  -17.7090 C   0  0  0  0  0  0  0  0  0  0  0  0
   -6.1570   -2.0130  -17.2440 C   0  0  0  0  0  0  0  0  0  0  0  0
   -8.5570   -1.2220  -17.8770 C   0  0  0  0  0  0  0  0  0  0  0  0
   -2.6270   -1.9710  -17.9300 C   0  0  1  0  0  0  0  0  0  0  0  0
   -7.3780   -1.9360  -17.3400 C   0  0  0  0  0  0  0  0  0  0  0  0
   -5.9240   -2.9130  -16.2500 C   0  0  0  0  0  0  0  0  0  0  0  0
   -7.1110   -3.4010  -15.8180 C   0  0  0  0  0  0  0  0  0  0  0  0
   -7.9930   -2.7310  -16.5210 N   0  0  0  0  0  0  0  0  0  0  0  0
   -3.1740   -1.4210  -19.0540 O   0  0  0  0  0  0  0  0  0  0  0  0
  1 10  1  0
  2  6  1  0
  3 19  1  0
  5  4  1  6
  5  1  1  0
  5 10  1  0
  9 12  1  0
 11  3  2  0
 12 13  1  0
 12  2  2  0
 13 17  2  0
 14 11  1  0
 14 16  2  0
 15  8  1  6
 15  5  1  0
 15  2  1  0
 16 13  1  0
 16 19  1  0
 17  6  1  0
 17 18  1  0
 18  7  2  0
 19 18  1  0
 20  9  1  0
 20 15  1  0
M  END
>  <rank>  (19) 
19

>  <composite_score>  (19) 
0.5701

>  <smiles>  (19) 
CC1(C2(C)OCC3=C2CC2=C3c3ccnn3C2=O)CC1

$$$$
3pbq_imipenem_iter1_filtered_88
     RDKit          3D

 26 28  0  0  0  0  0  0  0  0999 V2000
   -1.6180   -1.1610  -19.1680 C   0  0  1  0  0  0  0  0  0  0  0  0
   -7.6290   -1.7540  -17.9690 C   0  0  0  0  0  0  0  0  0  0  0  0
   -2.4690   -4.3280  -15.8170 O   0  0  0  0  0  0  0  0  0  0  0  0
   -7.3440   -4.3970  -14.9310 O   0  0  0  0  0  0  0  0  0  0  0  0
   -3.0980   -1.1180  -19.0820 C   0  0  0  0  0  0  0  0  0  0  0  0
   -1.6920   -3.4420  -16.3250 C   0  0  0  0  0  0  0  0  0  0  0  0
   -8.4960   -2.9790  -16.1760 N   0  0  0  0  0  0  0  0  0  0  0  0
   -2.0830   -2.8770  -17.1650 C   0  0  2  0  0  0  0  0  0  0  0  0
   -4.4850    0.3440  -22.0400 N   0  0  0  0  0  0  0  0  0  0  0  0
   -6.2070   -3.0420  -16.4470 C   0  0  0  0  0  0  0  0  0  0  0  0
   -5.2550   -1.6480  -18.2920 C   0  0  0  0  0  0  0  0  0  0  0  0
   -0.9820   -2.0660  -17.9990 C   0  0  2  0  0  0  0  0  0  0  0  0
   -6.3180   -2.1510  -17.5330 C   0  0  0  0  0  0  0  0  0  0  0  0
   -1.4810   -1.9450  -20.6160 C   0  0  0  0  0  0  0  0  0  0  0  0
   -3.4690   -2.4670  -17.1570 O   0  0  0  0  0  0  0  0  0  0  0  0
   -9.9800   -1.3720  -17.3040 C   0  0  0  0  0  0  0  0  0  0  0  0
   -0.8480    0.0350  -19.4880 C   0  0  0  0  0  0  0  0  0  0  0  0
   -8.5920   -2.0790  -17.1430 C   0  0  0  0  0  0  0  0  0  0  0  0
   -4.0550   -0.6210  -19.8810 N   0  0  0  0  0  0  0  0  0  0  0  0
   -7.7590   -1.2220  -19.0550 O   0  0  0  0  0  0  0  0  0  0  0  0
   -5.3960   -0.9730  -19.3500 N   0  0  0  0  0  0  0  0  0  0  0  0
   -3.8890   -1.7490  -18.0490 C   0  0  0  0  0  0  0  0  0  0  0  0
   -7.3470   -3.5070  -15.7630 C   0  0  0  0  0  0  0  0  0  0  0  0
   -0.3110   -1.2410  -16.9720 C   0  0  0  0  0  0  0  0  0  0  0  0
   -4.1870   -0.0490  -21.0120 C   0  0  0  0  0  0  0  0  0  0  0  0
    0.0220   -3.1260  -18.5730 C   0  0  0  0  0  0  0  0  0  0  0  0
  1  5  1  0
  1 12  1  0
  2 13  1  0
  2 18  1  0
  5 22  2  0
  6  3  2  0
  7 23  1  0
  8 15  1  0
  8  6  1  1
  9 25  3  0
 10 23  1  0
 11 22  1  0
 11 13  1  0
 12  8  1  0
 12 24  1  1
 13 10  2  0
  1 14  1  6
 16 18  1  0
 17  1  1  0
 18  7  2  0
 19 21  1  0
 19  5  1  0
 20  2  2  0
 21 11  2  0
 22 15  1  0
 23  4  2  0
 25 19  1  0
 26 12  1  0
M  END
>  <rank>  (20) 
20

>  <composite_score>  (20) 
0.5648

>  <smiles>  (20) 
CC1=NC(=O)C=C(c2nn(C#N)c3c2OC(C=O)C(C)(C)C3(C)C)C1=O

$$$$
3pbq_imipenem_iter1_filtered_372
     RDKit          3D

 21 23  0  0  0  0  0  0  0  0999 V2000
   -8.1980   -3.5270  -15.2530 C   0  0  0  0  0  0  0  0  0  0  0  0
   -1.1210   -2.6710  -15.3240 C   0  0  0  0  0  0  0  0  0  0  0  0
   -2.7430   -0.5400  -18.1970 C   0  0  0  0  0  0  0  0  0  0  0  0
   -8.6830   -1.2830  -18.0660 N   0  0  0  0  0  0  0  0  0  0  0  0
   -5.9330   -1.2270  -19.6460 F   0  0  0  0  0  0  0  0  0  0  0  0
   -4.4780   -1.6800  -17.1440 C   0  0  1  0  0  0  0  0  0  0  0  0
   -5.9430   -1.6950  -18.6930 C   0  0  0  0  0  0  0  0  0  0  0  0
   -8.7920   -2.6160  -16.0440 O   0  0  0  0  0  0  0  0  0  0  0  0
   -0.6370   -3.1180  -17.9080 C   0  0  0  0  0  0  0  0  0  0  0  0
   -2.9950   -2.6960  -17.0740 C   0  0  2  0  0  0  0  0  0  0  0  0
   -4.1240   -3.2040  -16.2530 S   0  0  0  0  0  0  0  0  0  0  0  0
   -7.0010   -3.5420  -15.5110 N   0  0  0  0  0  0  0  0  0  0  0  0
   -1.5390   -0.8770  -18.8360 C   0  0  1  0  0  0  0  0  0  0  0  0
   -1.6910   -3.0570  -16.7600 C   0  0  2  0  0  0  0  0  0  0  0  0
   -0.8150   -1.8540  -18.3910 C   0  0  0  0  0  0  0  0  0  0  0  0
   -1.0070   -0.2120  -20.1000 C   0  0  0  0  0  0  0  0  0  0  0  0
   -0.4510   -1.2850  -20.9710 O   0  0  0  0  0  0  0  0  0  0  0  0
   -7.9980   -2.0590  -16.9250 C   0  0  0  0  0  0  0  0  0  0  0  0
   -6.7850   -2.5270  -16.5250 C   0  0  0  0  0  0  0  0  0  0  0  0
   -3.5870   -1.5650  -17.4580 C   0  0  0  0  0  0  0  0  0  0  0  0
   -5.6470   -2.0890  -17.3100 C   0  0  2  0  0  0  0  0  0  0  0  0
  4 18  1  0
  5  7  1  0
  6 21  1  0
  6 11  1  1
  8  1  1  0
  9 14  1  0
 10 14  1  0
 10 11  1  1
 12  1  2  0
 13 16  1  6
 13 15  1  0
 13  3  1  0
 14  2  1  1
 15  9  1  0
 17 16  1  0
 18 19  2  0
 18  8  1  0
 19 12  1  0
 20  3  1  0
 20  6  1  0
 20 10  1  0
 21  7  1  1
 21 19  1  0
M  END
>  <rank>  (21) 
21

>  <composite_score>  (21) 
0.5614

>  <smiles>  (21) 
CC1CCC(CO)CC2C1SC2C(CF)c1ncoc1N

$$$$
3pbq_imipenem_iter1_filtered_334
     RDKit          3D

 21 23  0  0  0  0  0  0  0  0999 V2000
   -3.6910   -1.9050  -16.8650 C   0  0  1  0  0  0  0  0  0  0  0  0
   -8.3450   -4.6510  -15.0250 O   0  0  0  0  0  0  0  0  0  0  0  0
   -6.8660   -3.2090  -16.0540 C   0  0  0  0  0  0  0  0  0  0  0  0
   -2.3300    0.2790  -17.8590 C   0  0  0  0  0  0  0  0  0  0  0  0
   -2.8170    0.1230  -19.3060 C   0  0  0  0  0  0  0  0  0  0  0  0
   -8.1460   -1.4910  -17.1030 C   0  0  0  0  0  0  0  0  0  0  0  0
   -8.0320   -3.8100  -16.0370 N   0  0  0  0  0  0  0  0  0  0  0  0
   -2.6210   -4.1420  -17.3490 C   0  0  0  0  0  0  0  0  0  0  0  0
   -8.9770   -3.5550  -17.1430 C   0  0  0  0  0  0  0  0  0  0  0  0
   -3.8300   -3.5450  -17.5090 C   0  0  0  0  0  0  0  0  0  0  0  0
   -3.9610   -1.0270  -19.1520 C   0  0  0  0  0  0  0  0  0  0  0  0
   -4.5490   -1.4360  -18.1450 C   0  0  1  0  0  0  0  0  0  0  0  0
   -1.6690   -2.7440  -15.3400 C   0  0  0  0  0  0  0  0  0  0  0  0
   -6.6850   -1.9900  -16.8790 C   0  0  2  0  0  0  0  0  0  0  0  0
   -1.5900   -3.2970  -16.8200 C   0  0  0  0  0  0  0  0  0  0  0  0
   -6.8060   -1.7900  -19.1240 C   0  0  0  0  0  0  0  0  0  0  0  0
   -8.4560   -2.5200  -18.2200 C   0  0  0  0  0  0  0  0  0  0  0  0
   -3.0730   -2.1740  -15.5120 C   0  0  0  0  0  0  0  0  0  0  0  0
   -3.2680   -0.3380  -16.8460 C   0  0  0  0  0  0  0  0  0  0  0  0
   -5.9430   -3.6030  -15.3300 O   0  0  0  0  0  0  0  0  0  0  0  0
   -5.8970   -1.8630  -18.0630 C   0  0  1  0  0  0  0  0  0  0  0  0
  1 19  1  6
  1 18  1  0
  3  7  1  0
  3 20  2  0
  4 19  1  0
  5 11  1  0
  5  4  1  0
 14  6  1  6
  7  2  1  0
  8 15  1  0
  9  7  1  0
 10  8  1  0
 10  1  1  0
 12 11  1  6
 12 21  1  0
 12  1  1  0
 14 21  1  0
 14  3  1  0
 15 13  1  0
 17  9  1  0
 17  6  1  0
 18 13  1  0
 21 16  1  6
M  END
>  <rank>  (22) 
22

>  <composite_score>  (22) 
0.5489

>  <smiles>  (22) 
CC(C1CCCN(O)C1=O)C1CCCCC12CCCCC2

$$$$
3pbq_imipenem_iter1_filtered_86
     RDKit          3D

 20 21  0  0  0  0  0  0  0  0999 V2000
   -5.1320   -1.5990  -18.5160 C   0  0  0  0  0  0  0  0  0  0  0  0
   -3.6120   -2.5150  -14.9900 N   0  0  0  0  0  0  0  0  0  0  0  0
   -3.6920   -1.5570  -18.3460 C   0  0  0  0  0  0  0  0  0  0  0  0
   -5.7520   -2.5540  -16.3190 C   0  0  0  0  0  0  0  0  0  0  0  0
   -1.7800   -0.7370  -17.4260 C   0  0  0  0  0  0  0  0  0  0  0  0
   -2.3500   -1.8190  -17.7270 C   0  0  0  0  0  0  0  0  0  0  0  0
   -0.5320   -0.7590  -16.5980 C   0  0  0  0  0  0  0  0  0  0  0  0
   -1.9790   -2.9300  -17.2260 C   0  0  0  0  0  0  0  0  0  0  0  0
   -7.3540   -2.0320  -17.9070 C   0  0  0  0  0  0  0  0  0  0  0  0
    0.1860   -1.9300  -16.4570 C   0  0  0  0  0  0  0  0  0  0  0  0
   -5.3660   -1.0900  -19.6930 O   0  0  0  0  0  0  0  0  0  0  0  0
   -3.3790   -0.9140  -19.4910 C   0  0  0  0  0  0  0  0  0  0  0  0
   -8.2940   -2.7510  -17.0600 C   0  0  0  0  0  0  0  0  0  0  0  0
   -6.0810   -2.0650  -17.5700 C   0  0  0  0  0  0  0  0  0  0  0  0
   -6.6300   -3.2810  -15.5760 N   0  0  0  0  0  0  0  0  0  0  0  0
   -4.4600   -2.4930  -15.6310 C   0  0  0  0  0  0  0  0  0  0  0  0
   -8.5870   -4.3000  -15.3640 O   0  0  0  0  0  0  0  0  0  0  0  0
   -0.8310   -2.9500  -16.3850 C   0  0  0  0  0  0  0  0  0  0  0  0
   -2.5060   -0.4630  -20.3520 C   0  0  0  0  0  0  0  0  0  0  0  0
   -7.8410   -3.4240  -15.9690 C   0  0  0  0  0  0  0  0  0  0  0  0
  1  3  1  0
  1 14  2  3
  3 12  1  0
  3  6  1  0
  4 16  1  0
  4 15  2  0
  5  7  1  0
  6  5  2  0
  6  8  1  0
  7 10  1  0
  8 18  1  0
  9 14  1  0
  9 13  2  0
 10 18  1  0
 11  1  1  0
 13 20  1  0
 14  4  1  0
 16  2  3  0
 19 12  2  0
 20 15  1  0
 20 17  2  0
M  END
>  <rank>  (23) 
23

>  <composite_score>  (23) 
0.5470

>  <smiles>  (23) 
C=CC(C1=CCCCC1)C(O)=C1C=CC(=O)N=C1C#N

$$$$
3pbq_imipenem_iter1_filtered_103
     RDKit          3D

 19 20  0  0  0  0  0  0  0  0999 V2000
   -7.0020   -2.0950  -18.3290 C   0  0  0  0  0  0  0  0  0  0  0  0
   -9.2850   -1.9970  -17.7390 N   0  0  0  0  0  0  0  0  0  0  0  0
   -5.8100   -2.5600  -16.0270 C   0  0  0  0  0  0  0  0  0  0  0  0
   -1.5540   -2.7080  -15.9480 C   0  0  0  0  0  0  0  0  0  0  0  0
   -4.5830   -1.6210  -18.0940 C   0  0  0  0  0  0  0  0  0  0  0  0
   -7.6920   -3.0570  -16.0770 N   0  0  0  0  0  0  0  0  0  0  0  0
   -9.6580   -4.0250  -16.7120 O   0  0  0  0  0  0  0  0  0  0  0  0
   -7.4770   -3.8310  -15.0190 O   0  0  0  0  0  0  0  0  0  0  0  0
   -2.9860   -2.8050  -16.5230 C   0  0  0  0  0  0  0  0  0  0  0  0
   -0.9980   -0.4500  -17.3440 C   0  0  0  0  0  0  0  0  0  0  0  0
   -8.8730   -3.0810  -16.8780 C   0  0  0  0  0  0  0  0  0  0  0  0
   -3.2420   -1.8360  -17.5190 C   0  0  0  0  0  0  0  0  0  0  0  0
   -8.1050   -1.1580  -18.0710 C   0  0  0  0  0  0  0  0  0  0  0  0
   -2.1280   -1.1440  -18.1730 C   0  0  0  0  0  0  0  0  0  0  0  0
   -5.9060   -2.0520  -17.4600 C   0  0  1  0  0  0  0  0  0  0  0  0
   -2.2240   -0.7760  -19.4810 C   0  0  0  0  0  0  0  0  0  0  0  0
   -0.7860   -1.3190  -16.0290 C   0  0  0  0  0  0  0  0  0  0  0  0
   -3.5220   -0.5820  -20.0420 C   0  0  0  0  0  0  0  0  0  0  0  0
   -4.6670   -0.9280  -19.3390 C   0  0  0  0  0  0  0  0  0  0  0  0
  1 13  1  0
  1 15  1  0
  2 11  1  0
  5 12  1  0
  5 15  1  0
  6  8  1  0
  9  4  1  0
 10 17  1  0
 11  7  2  0
 11  6  1  0
 12  9  1  0
 13  2  1  0
 14 12  2  0
 14 10  1  0
 15  3  1  6
 16 14  1  0
 17  4  1  0
 18 16  2  0
 18 19  1  0
 19  5  2  0
M  END
>  <rank>  (24) 
24

>  <composite_score>  (24) 
0.5436

>  <smiles>  (24) 
CC(CCNC(=O)NO)c1cccc2c1CCCC2

$$$$
3pbq_imipenem_iter1_filtered_370
     RDKit          3D

 20 21  0  0  0  0  0  0  0  0999 V2000
   -9.6220   -2.2550  -17.9780 O   0  0  0  0  0  0  0  0  0  0  0  0
   -3.7370   -3.1860  -16.3360 C   0  0  1  0  0  0  0  0  0  0  0  0
   -1.4870    0.4290  -19.6100 C   0  0  0  0  0  0  0  0  0  0  0  0
   -7.5480   -1.1060  -18.0240 O   0  0  0  0  0  0  0  0  0  0  0  0
   -2.7240   -1.8880  -15.8610 C   0  0  0  0  0  0  0  0  0  0  0  0
   -2.9510   -1.7610  -18.2020 C   0  0  0  0  0  0  0  0  0  0  0  0
   -2.0490   -0.6110  -20.2630 C   0  0  0  0  0  0  0  0  0  0  0  0
   -6.7590   -3.4130  -15.0430 O   0  0  0  0  0  0  0  0  0  0  0  0
   -1.5380    0.7950  -18.2200 C   0  0  0  0  0  0  0  0  0  0  0  0
   -5.1580   -2.9090  -16.2620 C   0  0  0  0  0  0  0  0  0  0  0  0
   -3.3380   -3.3400  -17.7130 C   0  0  0  0  0  0  0  0  0  0  0  0
   -2.7910   -1.6210  -19.4230 C   0  0  0  0  0  0  0  0  0  0  0  0
   -8.1550   -2.3270  -17.8850 S   0  0  1  0  0  0  0  0  0  0  0  0
   -1.7720    0.1420  -17.1590 C   0  0  0  0  0  0  0  0  0  0  0  0
   -8.7040   -4.1360  -16.3770 O   0  0  0  0  0  0  0  0  0  0  0  0
   -2.4260   -1.1200  -17.0980 C   0  0  0  0  0  0  0  0  0  0  0  0
   -8.3040   -3.1400  -16.5680 C   0  0  0  0  0  0  0  0  0  0  0  0
   -7.6410   -2.5330  -15.5340 C   0  0  0  0  0  0  0  0  0  0  0  0
   -7.5180   -3.1800  -18.8140 O   0  0  0  0  0  0  0  0  0  0  0  0
   -6.1700   -3.8020  -15.6860 C   0  0  0  0  0  0  0  0  0  0  0  0
 13  1  1  6
  2 10  1  6
  2  5  1  0
  3  9  1  0
  4 13  1  0
  6 11  1  0
  6 16  1  0
  7  3  2  0
  7 12  1  0
  9 14  1  0
 10 20  1  0
 11  2  1  0
 12  6  2  0
 13 17  1  0
 14 16  2  0
 16  5  1  0
 17 15  2  0
 17 18  1  0
 18  8  1  0
 19 13  1  0
 20  8  1  0
M  END
>  <rank>  (25) 
25

>  <composite_score>  (25) 
0.5425

>  <smiles>  (25) 
O=C(COCCC1CC2=CC=CCC=C2C1)S(O)(O)O

$$$$
3pbq_imipenem_iter1_filtered_110
     RDKit          3D

 19 21  0  0  0  0  0  0  0  0999 V2000
   -4.6490   -1.2060  -18.6210 C   0  0  2  0  0  0  0  0  0  0  0  0
   -2.1560   -3.3840  -16.3680 C   0  0  0  0  0  0  0  0  0  0  0  0
   -1.9900   -2.0080  -15.8900 C   0  0  0  0  0  0  0  0  0  0  0  0
   -1.8500   -1.0980  -17.9600 C   0  0  1  0  0  0  0  0  0  0  0  0
   -6.1400   -3.3740  -15.6240 O   0  0  0  0  0  0  0  0  0  0  0  0
   -4.6050   -2.0380  -16.1370 N   0  0  0  0  0  0  0  0  0  0  0  0
   -1.1940   -1.0030  -20.3220 F   0  0  0  0  0  0  0  0  0  0  0  0
   -8.4320   -3.0490  -16.4100 O   0  0  0  0  0  0  0  0  0  0  0  0
   -7.8930   -2.4210  -17.3380 C   0  0  0  0  0  0  0  0  0  0  0  0
   -0.7260   -0.7740  -17.3730 C   0  0  0  0  0  0  0  0  0  0  0  0
   -5.8040   -2.6040  -16.3210 C   0  0  0  0  0  0  0  0  0  0  0  0
   -6.5790   -2.1450  -17.4800 C   0  0  0  0  0  0  0  0  0  0  0  0
   -2.1710   -0.9880  -19.3800 C   0  0  2  0  0  0  0  0  0  0  0  0
    0.5260   -0.5390  -16.8420 C   0  0  0  0  0  0  0  0  0  0  0  0
   -6.0440   -1.4930  -18.6300 C   0  0  0  0  0  0  0  0  0  0  0  0
   -8.8290   -2.0360  -18.3260 N   0  0  0  0  0  0  0  0  0  0  0  0
   -4.1070   -1.2730  -17.2370 C   0  0  1  0  0  0  0  0  0  0  0  0
   -3.7430   -0.6340  -19.9140 S   0  0  0  0  0  0  0  0  0  0  0  0
   -2.7810   -1.8750  -17.0330 C   0  0  1  0  0  0  0  0  0  0  0  0
  1 15  1  0
  1 17  1  0
  2  3  1  0
  4 10  1  6
  4 19  1  0
  9  8  2  0
 10 14  1  0
 11  6  1  0
 11  5  2  0
 12  9  1  0
 12 11  1  0
 13  7  1  1
 13  4  1  0
 15 12  2  0
 16  9  1  0
 17 19  1  0
 17  6  1  1
 18 13  1  0
  1 18  1  1
 19  2  1  6
 19  3  1  0
M  END
>  <rank>  (26) 
26

>  <composite_score>  (26) 
0.5417

>  <smiles>  (26) 
CCC1C(F)SC2C=C(C(N)=O)C(=O)NC2C12CC2

$$$$
3pbq_imipenem_iter1_filtered_116
     RDKit          3D

 22 25  0  0  0  0  0  0  0  0999 V2000
  -10.6030   -0.8400  -16.3420 C   0  0  0  0  0  0  0  0  0  0  0  0
   -7.0570   -1.7890  -17.5330 C   0  0  0  0  0  0  0  0  0  0  0  0
   -7.4370   -3.9920  -14.7060 O   0  0  0  0  0  0  0  0  0  0  0  0
   -7.5670   -2.5020  -16.4370 C   0  0  2  0  0  0  0  0  0  0  0  0
   -8.4940   -0.9360  -18.2750 S   0  0  0  0  0  0  0  0  0  0  0  0
   -8.7930   -2.1130  -15.9190 N   0  0  0  0  0  0  0  0  0  0  0  0
   -1.3750    0.8810  -17.3880 C   0  0  0  0  0  0  0  0  0  0  0  0
   -0.6040    0.5350  -18.6580 C   0  0  0  0  0  0  0  0  0  0  0  0
   -0.6920   -0.2550  -20.9670 O   0  0  0  0  0  0  0  0  0  0  0  0
   -5.4830   -3.4430  -15.9420 N   0  0  0  0  0  0  0  0  0  0  0  0
   -5.0970   -1.1040  -18.9550 C   0  0  0  0  0  0  0  0  0  0  0  0
   -3.4480    0.0040  -21.0660 O   0  0  0  0  0  0  0  0  0  0  0  0
   -5.6990   -1.8150  -17.8580 C   0  0  0  0  0  0  0  0  0  0  0  0
   -2.8100   -0.3560  -19.8960 N   0  0  0  0  0  0  0  0  0  0  0  0
   -3.6410   -0.8650  -18.8540 C   0  0  0  0  0  0  0  0  0  0  0  0
   -6.7520   -3.3130  -15.6630 C   0  0  0  0  0  0  0  0  0  0  0  0
   -3.0290   -1.1200  -17.5260 C   0  0  0  0  0  0  0  0  0  0  0  0
   -2.1510   -0.1020  -16.8220 C   0  0  0  0  0  0  0  0  0  0  0  0
   -9.3320   -1.3160  -16.7760 C   0  0  0  0  0  0  0  0  0  0  0  0
   -4.8660   -2.5440  -16.8970 C   0  0  0  0  0  0  0  0  0  0  0  0
   -1.3580   -0.0160  -19.9280 C   0  0  0  0  0  0  0  0  0  0  0  0
   -3.4780   -2.2820  -16.8990 C   0  0  0  0  0  0  0  0  0  0  0  0
  2  5  1  0
  2  4  1  0
  4  6  1  1
  4 16  1  0
  5 19  1  0
  7 18  1  0
  8  7  1  0
  9 21  2  0
 10 16  1  0
 11 15  2  0
 11 13  1  0
 12 14  1  0
 13  2  1  0
 13 20  2  0
 14 15  1  0
 15 17  1  0
 16  3  2  0
 17 22  2  0
 17 18  1  0
 19  1  1  0
 19  6  1  0
 20 10  1  0
 21 14  1  0
 21  8  1  0
 22 20  1  0
M  END
>  <rank>  (27) 
27

>  <composite_score>  (27) 
0.5400

>  <smiles>  (27) 
CC1NC2C(=O)Nc3cc4c(cc3C2S1)N(O)C(=O)CCC4

$$$$
3pbq_imipenem_iter1_filtered_131
     RDKit          3D

 20 22  0  0  0  0  0  0  0  0999 V2000
   -7.2780   -2.0570  -17.5790 C   0  0  0  0  0  0  0  0  0  0  0  0
   -5.8420   -3.1900  -16.0010 N   0  0  0  0  0  0  0  0  0  0  0  0
   -7.0720   -3.4850  -15.2600 C   0  0  0  0  0  0  0  0  0  0  0  0
   -2.9240   -1.0590  -19.1550 C   0  0  0  0  0  0  0  0  0  0  0  0
   -3.1890   -0.5200  -20.2540 C   0  0  0  0  0  0  0  0  0  0  0  0
   -5.0710   -1.8750  -18.2410 C   0  0  0  0  0  0  0  0  0  0  0  0
   -5.8040   -1.2310  -19.2090 C   0  0  0  0  0  0  0  0  0  0  0  0
   -8.4470   -2.3230  -16.9340 C   0  0  0  0  0  0  0  0  0  0  0  0
   -0.8460   -0.5500  -19.7710 C   0  0  0  0  0  0  0  0  0  0  0  0
   -0.2360   -0.1150  -20.4250 C   0  0  0  0  0  0  0  0  0  0  0  0
   -8.3130   -3.0840  -15.6490 C   0  0  0  0  0  0  0  0  0  0  0  0
   -9.6450   -1.7910  -17.4090 O   0  0  0  0  0  0  0  0  0  0  0  0
   -1.5830   -1.1250  -18.8840 C   0  0  1  0  0  0  0  0  0  0  0  0
   -2.2430   -1.7660  -16.4710 C   0  0  0  0  0  0  0  0  0  0  0  0
   -7.2570   -1.4120  -18.9300 N   0  0  0  0  0  0  0  0  0  0  0  0
   -1.1300   -1.1040  -17.3860 C   0  0  0  0  0  0  0  0  0  0  0  0
   -3.6620   -1.8030  -18.3730 N   0  0  0  0  0  0  0  0  0  0  0  0
   -6.0160   -2.4280  -17.1940 C   0  0  0  0  0  0  0  0  0  0  0  0
   -2.9350   -2.6220  -17.6410 C   0  0  0  0  0  0  0  0  0  0  0  0
   -9.7130   -0.4190  -17.4660 C   0  0  0  0  0  0  0  0  0  0  0  0
  1 18  1  0
  1  8  1  0
  2  3  1  0
  4 13  1  0
  4 17  1  0
  5  4  2  0
  6 18  1  0
  7 15  1  0
  7  6  2  0
  8 11  2  0
 10  9  3  0
 11  3  1  0
 12  8  1  0
 13  9  1  6
 13 16  1  0
 15  1  2  0
 16 14  1  0
 17  6  1  0
 17 19  1  0
 18  2  2  0
 19 14  1  0
 20 12  1  0
M  END
>  <rank>  (28) 
28

>  <composite_score>  (28) 
0.5380

>  <smiles>  (28) 
C#CC1CCCN(C2=CN=C3C(OC)=CCN=C23)C1=C

$$$$
3pbq_imipenem_iter1_filtered_129
     RDKit          3D

 22 25  0  0  0  0  0  0  0  0999 V2000
   -8.6330   -1.0320  -17.4850 C   0  0  0  0  0  0  0  0  0  0  0  0
   -7.7020   -2.2390  -14.7320 O   0  0  0  0  0  0  0  0  0  0  0  0
   -7.3660   -4.4310  -15.3510 O   0  0  0  0  0  0  0  0  0  0  0  0
   -7.4890   -1.9220  -17.7920 C   0  0  2  0  0  0  0  0  0  0  0  0
   -2.9940   -0.3380  -18.0850 C   0  0  0  0  0  0  0  0  0  0  0  0
   -8.8890   -2.4370  -17.8710 C   0  0  1  0  0  0  0  0  0  0  0  0
   -6.8060   -2.6200  -16.8400 N   0  0  0  0  0  0  0  0  0  0  0  0
   -1.9960    0.6390  -18.0290 C   0  0  0  0  0  0  0  0  0  0  0  0
   -2.9350   -1.2460  -19.0700 C   0  0  0  0  0  0  0  0  0  0  0  0
   -9.1320   -3.4460  -16.7820 C   0  0  0  0  0  0  0  0  0  0  0  0
   -0.8460   -0.3800  -20.0220 C   0  0  0  0  0  0  0  0  0  0  0  0
   -4.0040   -0.6210  -17.0660 C   0  0  0  0  0  0  0  0  0  0  0  0
   -7.0330   -2.1530  -19.1750 C   0  0  0  0  0  0  0  0  0  0  0  0
   -5.5200   -2.6870  -16.5580 C   0  0  0  0  0  0  0  0  0  0  0  0
   -4.3630   -1.9940  -17.5170 C   0  0  2  0  0  0  0  0  0  0  0  0
   -6.6040   -0.8370  -19.8190 O   0  0  0  0  0  0  0  0  0  0  0  0
   -1.8220   -1.4500  -19.9300 C   0  0  0  0  0  0  0  0  0  0  0  0
   -7.7600   -3.2290  -15.7860 S   0  0  2  0  0  0  0  0  0  0  0  0
   -3.3110   -2.9490  -16.9700 C   0  0  0  0  0  0  0  0  0  0  0  0
    0.0520    1.7680  -19.2610 C   0  0  0  0  0  0  0  0  0  0  0  0
   -0.9480    0.6700  -19.1380 C   0  0  0  0  0  0  0  0  0  0  0  0
   -4.0170   -2.0460  -19.0290 C   0  0  0  0  0  0  0  0  0  0  0  0
  4 13  1  6
  4  1  1  0
  4  7  1  0
  5  8  2  0
  5 12  1  0
  6  4  1  0
  6  1  1  1
  6 10  1  0
  7 14  1  0
  7 18  1  0
  9 22  1  0
  9  5  1  0
 18 10  1  6
 11 17  1  0
 11 21  2  0
 15 12  1  0
 15 19  1  1
 15 14  1  0
 16 13  1  0
 17  9  2  0
 18  3  2  0
 18  2  2  0
 20 21  1  0
 21  8  1  0
 22 15  1  0
M  END
>  <rank>  (29) 
29

>  <composite_score>  (29) 
0.5368

>  <smiles>  (29) 
Cc1ccc2c(c1)CC(C)(CN1C3(CO)CC3CS1(=O)=O)C2

$$$$
3pbq_imipenem_iter1_filtered_335
     RDKit          3D

 22 25  0  0  0  0  0  0  0  0999 V2000
   -1.8790   -0.9740  -16.3360 C   0  0  0  0  0  0  0  0  0  0  0  0
   -5.2100   -0.9940  -19.9460 O   0  0  0  0  0  0  0  0  0  0  0  0
   -7.9790   -2.7720  -17.6480 C   0  0  2  0  0  0  0  0  0  0  0  0
   -6.6860   -2.1200  -18.4800 C   0  0  0  0  0  0  0  0  0  0  0  0
   -3.5550   -0.5500  -18.5060 C   0  0  0  0  0  0  0  0  0  0  0  0
   -0.8120   -1.9790  -15.6240 C   0  0  1  0  0  0  0  0  0  0  0  0
   -7.0980   -3.1960  -16.3090 C   0  0  1  0  0  0  0  0  0  0  0  0
   -7.4210   -1.8640  -19.7000 O   0  0  0  0  0  0  0  0  0  0  0  0
   -3.0070   -3.1150  -15.3190 C   0  0  0  0  0  0  0  0  0  0  0  0
   -8.9680   -4.0980  -15.4850 C   0  0  0  0  0  0  0  0  0  0  0  0
   -1.8240   -2.9790  -14.8320 C   0  0  0  0  0  0  0  0  0  0  0  0
   -4.2630   -1.7730  -16.9780 C   0  0  0  0  0  0  0  0  0  0  0  0
   -5.1670   -2.1470  -16.5440 N   0  0  0  0  0  0  0  0  0  0  0  0
   -5.7650   -2.5850  -16.2800 C   0  0  0  0  0  0  0  0  0  0  0  0
   -3.1590   -1.9100  -16.2470 C   0  0  2  0  0  0  0  0  0  0  0  0
   -9.5340   -4.0330  -16.7400 C   0  0  0  0  0  0  0  0  0  0  0  0
   -3.7870   -0.5060  -19.9750 C   0  0  0  0  0  0  0  0  0  0  0  0
   -5.5360   -1.6040  -18.6710 C   0  0  0  0  0  0  0  0  0  0  0  0
    0.5150   -2.2530  -16.2640 C   0  0  0  0  0  0  0  0  0  0  0  0
   -4.5170   -1.3100  -17.9610 C   0  0  2  0  0  0  0  0  0  0  0  0
   -7.8010   -3.5630  -15.5180 C   0  0  0  0  0  0  0  0  0  0  0  0
   -9.0560   -3.2700  -17.7430 C   0  0  0  0  0  0  0  0  0  0  0  0
  1  6  1  0
  2 18  1  0
  3 22  1  6
  3  7  1  0
  4  3  1  0
  6 19  1  6
  6 11  1  0
  7 14  1  1
  7 21  1  0
  8  4  1  0
  9 11  1  0
 12 13  1  0
 15 12  1  6
 13 14  1  0
 15  1  1  0
 15  9  1  0
 16 10  1  0
 17  2  1  0
 17  5  1  0
 18  4  2  3
 18 20  1  0
 20  5  1  6
 20 12  1  0
 21 10  1  0
 22 16  2  0
M  END
>  <rank>  (30) 
30

>  <composite_score>  (30) 
0.5349

>  <smiles>  (30) 
CC1CCC(C2NCC3CCC=CC3C(O)=C3OCCC32)C1

$$$$
3pbq_imipenem_iter1_filtered_87
     RDKit          3D

 21 23  0  0  0  0  0  0  0  0999 V2000
   -4.0040   -2.1330  -16.6500 C   0  0  0  0  0  0  0  0  0  0  0  0
   -0.8520   -0.0830  -17.1420 C   0  0  0  0  0  0  0  0  0  0  0  0
   -9.2390   -4.3120  -16.7770 O   0  0  0  0  0  0  0  0  0  0  0  0
   -3.2720   -0.5460  -18.5140 C   0  0  2  0  0  0  0  0  0  0  0  0
   -1.6900   -3.3440  -17.1570 C   0  0  0  0  0  0  0  0  0  0  0  0
   -7.7320   -2.3990  -18.2380 C   0  0  0  0  0  0  0  0  0  0  0  0
   -6.7540   -1.8120  -18.9920 C   0  0  0  0  0  0  0  0  0  0  0  0
   -2.4580   -0.5260  -19.7080 C   0  0  0  0  0  0  0  0  0  0  0  0
  -10.0850   -3.5900  -17.5380 C   0  0  0  0  0  0  0  0  0  0  0  0
   -7.3960   -2.8980  -16.9990 C   0  0  0  0  0  0  0  0  0  0  0  0
   -5.2900   -2.0020  -17.1580 C   0  0  0  0  0  0  0  0  0  0  0  0
   -5.5250   -1.5930  -18.4840 C   0  0  0  0  0  0  0  0  0  0  0  0
   -3.0510   -1.1960  -17.2640 C   0  0  2  0  0  0  0  0  0  0  0  0
   -4.5520   -0.9300  -19.0410 O   0  0  0  0  0  0  0  0  0  0  0  0
   -1.8600   -2.0510  -17.9920 C   0  0  1  0  0  0  0  0  0  0  0  0
   -0.7300   -1.1560  -18.0900 C   0  0  2  0  0  0  0  0  0  0  0  0
   -7.8360   -4.0760  -15.0880 O   0  0  0  0  0  0  0  0  0  0  0  0
   -6.2060   -2.6910  -16.4500 C   0  0  0  0  0  0  0  0  0  0  0  0
    0.5590   -1.7320  -17.8990 C   0  0  0  0  0  0  0  0  0  0  0  0
   -1.1190   -0.7980  -19.4960 C   0  0  0  0  0  0  0  0  0  0  0  0
   -8.2200   -3.7300  -16.1740 C   0  0  0  0  0  0  0  0  0  0  0  0
  3 21  1  0
  4  8  1  6
  4 13  1  0
  6 10  2  0
  7 12  2  0
  7  6  1  0
  8 20  1  0
  9  3  1  0
 10 18  1  0
 10 21  1  0
 11  1  1  0
 11 18  2  0
 12 11  1  0
 13  1  1  6
 14  4  1  0
 14 12  1  0
 15 13  1  0
 15  5  1  1
 16 15  1  0
 16 19  1  6
 16  2  1  0
 20 16  1  0
 21 17  2  0
M  END
>  <rank>  (31) 
31

>  <composite_score>  (31) 
0.5324

>  <smiles>  (31) 
COC(=O)c1ccc2c(c1)CC1C(CCC(C)(C)C1C)O2

$$$$
3pbq_imipenem_iter1_filtered_3
     RDKit          3D

 20 22  0  0  0  0  0  0  0  0999 V2000
   -8.5270   -3.3070  -16.8500 O   0  0  0  0  0  0  0  0  0  0  0  0
   -3.3120   -1.0020  -19.0270 O   0  0  0  0  0  0  0  0  0  0  0  0
   -4.5630   -1.3740  -18.7150 C   0  0  0  0  0  0  0  0  0  0  0  0
   -7.9410   -4.2880  -14.9260 O   0  0  0  0  0  0  0  0  0  0  0  0
   -2.4090   -2.2920  -17.2410 C   0  0  0  0  0  0  0  0  0  0  0  0
   -2.2440   -1.6340  -18.3610 C   0  0  0  0  0  0  0  0  0  0  0  0
   -6.1450   -2.2730  -17.2420 C   0  0  0  0  0  0  0  0  0  0  0  0
   -3.7860   -2.5710  -16.6640 C   0  0  0  0  0  0  0  0  0  0  0  0
   -0.1380   -2.3420  -17.0100 C   0  0  0  0  0  0  0  0  0  0  0  0
   -7.6930   -3.5720  -15.8350 C   0  0  0  0  0  0  0  0  0  0  0  0
   -1.0040   -1.3290  -18.8750 C   0  0  0  0  0  0  0  0  0  0  0  0
   -6.7550   -1.1530  -19.3230 C   0  0  0  0  0  0  0  0  0  0  0  0
   -7.1530   -1.9280  -18.1250 C   0  0  0  0  0  0  0  0  0  0  0  0
   -0.0150   -2.1860  -18.3420 C   0  0  0  0  0  0  0  0  0  0  0  0
   -5.4280   -0.9140  -19.5270 N   0  0  0  0  0  0  0  0  0  0  0  0
   -7.6870   -0.6640  -20.1470 O   0  0  0  0  0  0  0  0  0  0  0  0
   -4.7880   -2.0590  -17.5460 C   0  0  0  0  0  0  0  0  0  0  0  0
   -1.3270   -2.6620  -16.5580 C   0  0  0  0  0  0  0  0  0  0  0  0
   -6.3930   -2.9520  -15.9660 C   0  0  0  0  0  0  0  0  0  0  0  0
   -9.6650   -4.0260  -17.0790 C   0  0  0  0  0  0  0  0  0  0  0  0
  1 10  1  0
  2  3  1  0
  2  6  1  0
  3 17  1  0
  5  8  1  0
  5 18  1  0
  6  5  2  0
  7 19  1  0
  9 18  1  0
 10  4  2  0
 11  6  1  0
 11 14  1  0
 12 13  1  0
 13  7  1  0
 14  9  1  0
 15 12  1  0
 15  3  2  0
 16 12  2  0
 17  7  2  0
 17  8  1  0
 19 10  1  0
 20  1  1  0
M  END
>  <rank>  (32) 
32

>  <composite_score>  (32) 
0.5299

>  <smiles>  (32) 
COC(=O)CC1=C2CC3=C(CCCC3)OC2=NC(=O)C1

$$$$
3pbq_imipenem_iter1_filtered_169
     RDKit          3D

 20 21  0  0  0  0  0  0  0  0999 V2000
   -6.6200   -0.9160  -19.1430 O   0  0  0  0  0  0  0  0  0  0  0  0
   -4.2180   -1.0130  -17.9390 C   0  0  0  0  0  0  0  0  0  0  0  0
   -7.4850   -3.9310  -15.5210 O   0  0  0  0  0  0  0  0  0  0  0  0
   -2.9650   -0.4120  -17.8440 C   0  0  0  0  0  0  0  0  0  0  0  0
   -3.7090   -2.3040  -15.9500 C   0  0  0  0  0  0  0  0  0  0  0  0
    0.5280   -0.4750  -18.3620 C   0  0  0  0  0  0  0  0  0  0  0  0
   -6.6380   -3.2140  -19.3620 N   0  0  0  0  0  0  0  0  0  0  0  0
   -4.2550   -3.0630  -15.0470 F   0  0  0  0  0  0  0  0  0  0  0  0
    0.0860   -1.1530  -17.2200 C   0  0  1  0  0  0  0  0  0  0  0  0
   -9.7280   -4.1790  -17.4830 C   0  0  0  0  0  0  0  0  0  0  0  0
   -4.6880   -1.7660  -16.8440 C   0  0  0  0  0  0  0  0  0  0  0  0
   -2.4190   -1.8820  -15.9730 C   0  0  0  0  0  0  0  0  0  0  0  0
   -6.0760   -1.6490  -16.4740 C   0  0  0  0  0  0  0  0  0  0  0  0
   -0.7220   -0.1920  -16.7290 C   0  0  0  0  0  0  0  0  0  0  0  0
   -0.4660   -1.1900  -19.0720 C   0  0  0  0  0  0  0  0  0  0  0  0
   -7.0340   -2.3340  -17.1780 C   0  0  0  0  0  0  0  0  0  0  0  0
   -2.0520   -0.8530  -16.8330 C   0  0  0  0  0  0  0  0  0  0  0  0
   -7.0020   -2.0710  -18.5920 S   0  0  0  0  0  0  0  0  0  0  0  0
   -7.8970   -3.2240  -16.4370 C   0  0  0  0  0  0  0  0  0  0  0  0
   -9.2120   -3.1330  -16.7920 O   0  0  0  0  0  0  0  0  0  0  0  0
  1 18  2  0
  2  4  2  0
  2 11  1  0
  4 17  1  0
  5  8  1  0
  6  9  1  0
  9 14  1  1
 10 20  1  0
 11 13  1  0
 11  5  2  0
 12  5  1  0
 15  6  1  0
 15  9  1  0
 16 13  1  0
 16 19  1  0
 17 14  1  0
 17 12  2  0
 18  7  1  6
 18 16  1  0
 19  3  2  0
 20 19  1  0
M  END
>  <rank>  (33) 
33

>  <composite_score>  (33) 
0.5281

>  <smiles>  (33) 
COC(=O)C(Cc1ccc(CC2CC2)cc1F)S(N)=O

$$$$
3pbq_imipenem_iter1_filtered_273
     RDKit          3D

 22 25  0  0  0  0  0  0  0  0999 V2000
   -7.8180   -3.7500  -15.2180 O   0  0  0  0  0  0  0  0  0  0  0  0
    0.3680   -1.4280  -21.3020 F   0  0  0  0  0  0  0  0  0  0  0  0
   -3.6370   -2.8940  -15.4340 C   0  0  0  0  0  0  0  0  0  0  0  0
   -5.8140   -2.0410  -17.7030 C   0  0  0  0  0  0  0  0  0  0  0  0
   -9.8080   -2.7210  -16.8410 O   0  0  0  0  0  0  0  0  0  0  0  0
   -8.1330   -1.7980  -18.3140 C   0  0  0  0  0  0  0  0  0  0  0  0
   -5.0610   -2.8850  -15.4390 C   0  0  0  0  0  0  0  0  0  0  0  0
   -7.4380   -2.9530  -16.2000 C   0  0  0  0  0  0  0  0  0  0  0  0
   -3.0670   -3.4330  -14.4480 O   0  0  0  0  0  0  0  0  0  0  0  0
   -8.5080   -2.4600  -17.0790 C   0  0  0  0  0  0  0  0  0  0  0  0
   -1.4140   -2.1390  -18.2030 C   0  0  0  0  0  0  0  0  0  0  0  0
   -6.8590   -1.7990  -18.6160 C   0  0  0  0  0  0  0  0  0  0  0  0
   -3.4590   -1.5130  -17.4210 C   0  0  1  0  0  0  0  0  0  0  0  0
   -4.6340   -1.6120  -18.1700 N   0  0  0  0  0  0  0  0  0  0  0  0
   -2.9400   -2.5270  -16.5060 N   0  0  0  0  0  0  0  0  0  0  0  0
   -0.5500   -2.3800  -19.1650 C   0  0  0  0  0  0  0  0  0  0  0  0
   -2.4590   -0.3380  -19.2510 C   0  0  0  0  0  0  0  0  0  0  0  0
   -2.4630   -1.3320  -18.3480 C   0  0  0  0  0  0  0  0  0  0  0  0
   -1.4890   -2.9320  -16.8940 C   0  0  0  0  0  0  0  0  0  0  0  0
   -1.3750   -0.2560  -20.1030 C   0  0  0  0  0  0  0  0  0  0  0  0
   -6.0190   -2.6260  -16.4450 C   0  0  0  0  0  0  0  0  0  0  0  0
   -0.4820   -1.3310  -20.1910 C   0  0  0  0  0  0  0  0  0  0  0  0
  2 22  1  0
  3  9  2  0
  4 21  2  0
  6 10  1  0
  7  3  1  0
  8  1  1  0
 10  5  1  0
 10  8  2  0
 11 19  2  0
 12  6  2  0
 12  4  1  0
 13 18  1  0
 13 15  1  0
 14  4  1  0
 13 14  1  6
 15  3  1  0
 16 11  1  0
 17 18  2  0
 18 11  1  0
 19 15  1  0
 20 17  1  0
 21  8  1  0
 21  7  1  0
 22 20  2  0
 22 16  1  0
M  END
>  <rank>  (34) 
34

>  <composite_score>  (34) 
0.5234

>  <smiles>  (34) 
O=C1Cc2c(ccc(O)c2O)NC2C3=CC=C(F)CC3=CN12

$$$$
3pbq_imipenem_iter1_filtered_175
     RDKit          3D

 22 25  0  0  0  0  0  0  0  0999 V2000
   -6.6300   -2.2610  -19.3430 C   0  0  0  0  0  0  0  0  0  0  0  0
   -7.2070   -2.1950  -18.0440 C   0  0  2  0  0  0  0  0  0  0  0  0
   -2.0180   -2.0120  -19.0320 C   0  0  0  0  0  0  0  0  0  0  0  0
   -6.6680   -2.6290  -16.8280 N   0  0  0  0  0  0  0  0  0  0  0  0
   -3.6030   -2.8140  -14.8580 C   0  0  0  0  0  0  0  0  0  0  0  0
   -4.9170   -2.9440  -15.3840 C   0  0  0  0  0  0  0  0  0  0  0  0
   -0.4830   -3.5780  -20.2330 C   0  0  0  0  0  0  0  0  0  0  0  0
    0.3020   -1.7850  -17.1680 O   0  0  0  0  0  0  0  0  0  0  0  0
   -2.1590   -1.5150  -17.4450 C   0  0  1  0  0  0  0  0  0  0  0  0
   -1.4550   -1.9740  -16.0300 N   0  0  0  0  0  0  0  0  0  0  0  0
   -2.7040   -2.1770  -15.7690 C   0  0  0  0  0  0  0  0  0  0  0  0
    0.2650   -1.2380  -20.0860 C   0  0  0  0  0  0  0  0  0  0  0  0
   -8.9420   -2.6590  -16.6570 C   0  0  0  0  0  0  0  0  0  0  0  0
   -0.9990   -2.0060  -19.5340 C   0  0  1  0  0  0  0  0  0  0  0  0
   -5.2450   -2.5740  -16.5490 C   0  0  0  0  0  0  0  0  0  0  0  0
   -8.5010   -1.8230  -17.6930 N   0  0  0  0  0  0  0  0  0  0  0  0
   -9.1980   -0.9770  -18.1840 O   0  0  0  0  0  0  0  0  0  0  0  0
   -4.4720   -1.7920  -17.3460 C   0  0  0  0  0  0  0  0  0  0  0  0
   -0.9340   -1.9280  -17.1490 C   0  0  0  0  0  0  0  0  0  0  0  0
   -3.2240   -1.7620  -16.6170 C   0  0  0  0  0  0  0  0  0  0  0  0
   -7.7260   -3.7400  -15.0550 O   0  0  0  0  0  0  0  0  0  0  0  0
   -7.7570   -3.1500  -16.0830 C   0  0  0  0  0  0  0  0  0  0  0  0
  2  1  1  6
  2 16  1  0
  2  4  1  0
  4 15  1  0
  4 22  1  0
  6  5  2  0
 14  7  1  6
  8 19  2  0
  9  3  1  1
  9 19  1  0
  9 20  1  0
  9 10  1  0
 10 11  1  0
 11  5  1  0
 12 14  1  0
 13 22  1  0
 14  3  1  0
 15  6  1  0
 16 13  1  0
 17 16  1  0
 18 20  1  0
 18 15  2  0
 19 10  1  0
 20 11  2  0
 22 21  2  0
M  END
>  <rank>  (35) 
35

>  <composite_score>  (35) 
0.5225

>  <smiles>  (35) 
CC(C)CC12C(=O)N1c1ccc(N3C(=O)CN(O)C3C)cc12

$$$$
3pbq_imipenem_iter1_filtered_337
     RDKit          3D

 21 22  0  0  0  0  0  0  0  0999 V2000
   -2.4980   -2.5650  -16.7440 C   0  0  0  0  0  0  0  0  0  0  0  0
   -0.2070   -0.5540  -20.9790 C   0  0  0  0  0  0  0  0  0  0  0  0
   -8.9400   -2.6440  -17.2070 C   0  0  2  0  0  0  0  0  0  0  0  0
   -1.4080   -3.0760  -16.2090 N   0  0  0  0  0  0  0  0  0  0  0  0
   -6.5050   -3.6630  -15.1650 O   0  0  0  0  0  0  0  0  0  0  0  0
   -6.9820   -1.5070  -17.8650 C   0  0  0  0  0  0  0  0  0  0  0  0
  -11.1000   -1.9080  -17.5920 C   0  0  0  0  0  0  0  0  0  0  0  0
   -6.2160   -2.2430  -16.9840 C   0  0  0  0  0  0  0  0  0  0  0  0
   -0.5000    0.3390  -19.8480 C   0  0  0  0  0  0  0  0  0  0  0  0
   -1.7550   -0.2880  -19.2710 O   0  0  0  0  0  0  0  0  0  0  0  0
   -1.0680    0.1930  -17.1660 O   0  0  0  0  0  0  0  0  0  0  0  0
   -3.9580   -3.3910  -16.3590 S   0  0  0  0  0  0  0  0  0  0  0  0
   -8.2770   -1.7130  -17.9480 C   0  0  0  0  0  0  0  0  0  0  0  0
   -1.7750   -0.4560  -18.0160 C   0  0  0  0  0  0  0  0  0  0  0  0
   -8.2780   -3.1140  -16.1490 N   0  0  0  0  0  0  0  0  0  0  0  0
  -10.2130   -3.1510  -17.6040 C   0  0  0  0  0  0  0  0  0  0  0  0
   -4.6160   -0.2320  -18.4440 F   0  0  0  0  0  0  0  0  0  0  0  0
   -2.7370   -1.4450  -17.4740 C   0  0  0  0  0  0  0  0  0  0  0  0
   -4.1030   -1.2670  -17.6570 C   0  0  0  0  0  0  0  0  0  0  0  0
   -4.8010   -2.2090  -17.0260 C   0  0  0  0  0  0  0  0  0  0  0  0
   -6.9700   -3.0580  -16.0510 C   0  0  0  0  0  0  0  0  0  0  0  0
  1 12  1  0
  1  4  1  0
  2  9  1  0
  3 16  1  6
  3 15  1  0
  6  8  1  0
  8 20  1  0
  8 21  1  0
  9 10  1  0
 10 14  1  0
 13  6  2  0
 13  3  1  0
 14 18  1  0
 14 11  2  0
 15 21  1  0
 16  7  1  0
 17 19  1  0
 18  1  2  0
 19 18  1  0
 19 20  2  0
 20 12  1  0
 21  5  2  0
M  END
>  <rank>  (36) 
36

>  <composite_score>  (36) 
0.5216

>  <smiles>  (36) 
CCOC(=O)c1c(N)sc(C2C=CC(CC)NC2=O)c1F

$$$$
3pbq_imipenem_iter1_filtered_270
     RDKit          3D

 22 24  0  0  0  0  0  0  0  0999 V2000
   -2.7470   -0.4600  -19.5460 C   0  0  0  0  0  0  0  0  0  0  0  0
   -4.6460   -1.0730  -18.4500 C   0  0  1  0  0  0  0  0  0  0  0  0
   -3.9010   -0.9820  -17.3040 C   0  0  2  0  0  0  0  0  0  0  0  0
   -6.9310   -1.2200  -19.4430 N   0  0  0  0  0  0  0  0  0  0  0  0
   -8.8690   -1.7030  -17.0400 C   0  0  0  0  0  0  0  0  0  0  0  0
   -6.5170   -1.7550  -17.5830 C   0  0  0  0  0  0  0  0  0  0  0  0
   -8.1550   -1.3850  -18.9380 N   0  0  0  0  0  0  0  0  0  0  0  0
   -2.6180   -0.9210  -18.0160 C   0  0  1  0  0  0  0  0  0  0  0  0
   -6.2110   -1.3360  -18.6210 C   0  0  0  0  0  0  0  0  0  0  0  0
   -6.9340   -3.5100  -15.7120 C   0  0  0  0  0  0  0  0  0  0  0  0
   -8.1800   -4.2650  -15.5300 O   0  0  0  0  0  0  0  0  0  0  0  0
   -6.2780   -3.8130  -14.7450 O   0  0  0  0  0  0  0  0  0  0  0  0
   -1.7150   -2.9840  -17.0330 C   0  0  0  0  0  0  0  0  0  0  0  0
   -4.0620   -2.0000  -16.3070 C   0  0  0  0  0  0  0  0  0  0  0  0
   -4.2850   -0.8090  -19.5290 C   0  0  0  0  0  0  0  0  0  0  0  0
  -10.0650   -2.1910  -17.7400 O   0  0  0  0  0  0  0  0  0  0  0  0
   -3.1490   -3.2010  -16.3630 C   0  0  0  0  0  0  0  0  0  0  0  0
   -6.2600   -2.7910  -16.6160 N   0  0  0  0  0  0  0  0  0  0  0  0
   -0.4310   -1.8620  -19.0100 C   0  0  0  0  0  0  0  0  0  0  0  0
   -1.8630   -2.1520  -18.3970 C   0  0  2  0  0  0  0  0  0  0  0  0
   -0.6140   -1.7070  -20.4810 C   0  0  0  0  0  0  0  0  0  0  0  0
   -7.8320   -1.6940  -17.8190 C   0  0  0  0  0  0  0  0  0  0  0  0
  1 15  1  0
  2 15  1  0
  2  3  1  0
  3 14  1  1
  4  7  2  0
  6 18  1  0
  7 22  1  0
  8  1  1  6
  8  3  1  0
  9  4  1  0
  2  9  1  1
  9  6  1  0
 10 11  2  0
 10 12  1  0
 13 17  1  0
 16  5  1  0
 17 14  1  0
 18 10  1  0
 20 19  1  1
 20  8  1  0
 20 13  1  0
 21 19  1  0
 22  6  2  0
 22  5  1  0
M  END
>  <rank>  (37) 
37

>  <composite_score>  (37) 
0.5215

>  <smiles>  (37) 
CCC1CCCC2C1CCC2C1N=NC(CO)=C1NC(=O)O

$$$$
3pbq_imipenem_iter1_filtered_126
     RDKit          3D

 18 20  0  0  0  0  0  0  0  0999 V2000
   -6.3510   -2.2630  -16.9700 C   0  0  0  0  0  0  0  0  0  0  0  0
   -6.8050   -1.2760  -19.0430 C   0  0  0  0  0  0  0  0  0  0  0  0
   -1.9560   -1.0580  -18.5270 C   0  0  0  0  0  0  0  0  0  0  0  0
   -5.1190   -2.4320  -17.0860 C   0  0  0  0  0  0  0  0  0  0  0  0
   -2.9420   -1.8400  -17.7030 C   0  0  0  0  0  0  0  0  0  0  0  0
   -6.9010   -2.7100  -15.9700 C   0  0  0  0  0  0  0  0  0  0  0  0
   -2.6260   -2.5130  -16.4640 C   0  0  0  0  0  0  0  0  0  0  0  0
   -0.4440   -1.6090  -18.0640 C   0  0  0  0  0  0  0  0  0  0  0  0
   -3.9260   -0.5120  -19.8940 C   0  0  0  0  0  0  0  0  0  0  0  0
   -5.0800   -1.3190  -19.0760 C   0  0  0  0  0  0  0  0  0  0  0  0
   -7.0150   -1.5540  -18.1090 N   0  0  0  0  0  0  0  0  0  0  0  0
    0.8560   -3.0340  -16.5010 O   0  0  0  0  0  0  0  0  0  0  0  0
   -4.2580   -1.7420  -18.0520 C   0  0  0  0  0  0  0  0  0  0  0  0
   -1.3670   -2.6690  -15.9040 C   0  0  0  0  0  0  0  0  0  0  0  0
   -0.1930   -2.4230  -16.9010 C   0  0  0  0  0  0  0  0  0  0  0  0
   -7.6290   -3.2950  -15.4760 C   0  0  0  0  0  0  0  0  0  0  0  0
   -2.5370   -0.2250  -19.7380 C   0  0  0  0  0  0  0  0  0  0  0  0
   -6.8890   -0.7940  -20.1680 O   0  0  0  0  0  0  0  0  0  0  0  0
  1  6  1  0
  2 11  1  0
  3  8  1  0
  3  5  1  0
  4  1  1  0
  5  7  1  0
  6 16  2  0
  7 14  1  0
  8 15  1  0
  9 17  1  0
  9 10  2  0
 10  2  1  0
 10 13  1  0
 11  1  2  0
 13  5  2  0
 13  4  1  0
 15 12  2  0
 15 14  1  0
 17  3  2  0
 18  2  2  0
M  END
>  <rank>  (38) 
38

>  <composite_score>  (38) 
0.5159

>  <smiles>  (38) 
C=CC1=NC(=O)c2ccc3c(c2C1)CCC(=O)C3

$$$$
3pbq_imipenem_iter1_filtered_16
     RDKit          3D

 19 20  0  0  0  0  0  0  0  0999 V2000
   -7.5350   -1.9530  -17.8370 C   0  0  0  0  0  0  0  0  0  0  0  0
   -4.9060   -1.0520  -18.1540 C   0  0  0  0  0  0  0  0  0  0  0  0
   -0.7660   -3.1910  -17.7290 C   0  0  0  0  0  0  0  0  0  0  0  0
   -2.9480   -2.8040  -17.2830 C   0  0  0  0  0  0  0  0  0  0  0  0
   -1.8690   -3.5280  -16.8550 O   0  0  0  0  0  0  0  0  0  0  0  0
   -0.3620   -0.8240  -17.3910 C   0  0  0  0  0  0  0  0  0  0  0  0
   -2.5380   -1.7560  -18.1220 C   0  0  0  0  0  0  0  0  0  0  0  0
   -6.5160   -2.3400  -16.8470 N   0  0  0  0  0  0  0  0  0  0  0  0
  -10.0850   -0.6740  -17.1430 C   0  0  0  0  0  0  0  0  0  0  0  0
   -8.7950   -2.6170  -17.3960 C   0  0  0  0  0  0  0  0  0  0  0  0
   -9.5380   -1.8070  -16.4730 O   0  0  0  0  0  0  0  0  0  0  0  0
   -7.3760   -4.0680  -15.2680 O   0  0  0  0  0  0  0  0  0  0  0  0
   -6.9010   -2.6930  -15.4580 C   0  0  0  0  0  0  0  0  0  0  0  0
   -4.2070   -2.8750  -16.8320 C   0  0  0  0  0  0  0  0  0  0  0  0
   -3.5820   -0.9410  -18.5940 C   0  0  0  0  0  0  0  0  0  0  0  0
   -4.6600   -3.8330  -15.9120 F   0  0  0  0  0  0  0  0  0  0  0  0
   -5.1900   -2.0760  -17.2720 C   0  0  0  0  0  0  0  0  0  0  0  0
   -1.0770   -1.7890  -18.2770 C   0  0  2  0  0  0  0  0  0  0  0  0
   -0.6490   -1.6920  -19.7310 C   0  0  0  0  0  0  0  0  0  0  0  0
  1 10  1  0
  1  8  1  0
  2 17  2  0
  3  5  1  0
  4  5  1  0
  4 14  2  0
  7  4  1  0
  8 13  1  0
  9 11  1  0
 10 11  1  0
 13 12  1  0
 14 16  1  0
 15  2  1  0
 15  7  2  0
 17  8  1  0
 17 14  1  0
 18  7  1  0
 18  3  1  0
 18  6  1  1
 19 18  1  0
M  END
>  <rank>  (39) 
39

>  <composite_score>  (39) 
0.5127

>  <smiles>  (39) 
COCCN(CO)c1ccc2c(c1F)OCC2(C)C

$$$$
3pbq_imipenem_iter1_filtered_68
     RDKit          3D

 21 22  0  0  0  0  0  0  0  0999 V2000
    0.4030   -1.1220  -18.9540 N   0  0  0  0  0  0  0  0  0  0  0  0
   -5.6770   -1.0510  -17.9680 C   0  0  0  0  0  0  0  0  0  0  0  0
   -9.0100   -1.9660  -15.8060 F   0  0  0  0  0  0  0  0  0  0  0  0
   -6.8500   -2.1730  -19.6750 O   0  0  0  0  0  0  0  0  0  0  0  0
   -2.2010   -1.2810  -18.8570 C   0  0  2  0  0  0  0  0  0  0  0  0
   -3.5110   -1.1720  -19.4390 S   0  0  0  0  0  0  0  0  0  0  0  0
   -1.1700   -0.3960  -16.6200 C   0  0  0  0  0  0  0  0  0  0  0  0
   -8.4370   -2.7620  -17.9960 C   0  0  0  0  0  0  0  0  0  0  0  0
   -2.2900   -0.9170  -17.4810 C   0  0  1  0  0  0  0  0  0  0  0  0
   -3.4600   -1.0180  -17.1700 N   0  0  0  0  0  0  0  0  0  0  0  0
   -6.2680   -1.9730  -17.3820 N   0  0  0  0  0  0  0  0  0  0  0  0
   -0.3970   -0.7700  -21.0990 O   0  0  0  0  0  0  0  0  0  0  0  0
   -7.3420   -3.6340  -15.5690 C   0  0  0  0  0  0  0  0  0  0  0  0
   -4.3380   -0.9810  -18.0850 C   0  0  0  0  0  0  0  0  0  0  0  0
   -0.9600   -1.5360  -19.5410 C   0  0  1  0  0  0  0  0  0  0  0  0
   -9.6320   -4.0440  -16.4950 F   0  0  0  0  0  0  0  0  0  0  0  0
   -7.1480   -2.3190  -18.3910 C   0  0  0  0  0  0  0  0  0  0  0  0
   -5.8390   -2.8010  -16.1490 S   0  0  0  0  0  0  0  0  0  0  0  0
   -7.2190   -4.5770  -14.7860 O   0  0  0  0  0  0  0  0  0  0  0  0
   -8.6900   -3.1540  -16.3840 C   0  0  1  0  0  0  0  0  0  0  0  0
   -1.0610   -0.9590  -20.9100 O   0  0  0  0  0  0  0  0  0  0  0  0
  2 11  1  0
  4 17  2  0
  5 15  1  0
  5  9  1  0
  5  6  1  6
  6 14  1  0
  8 20  1  0
  9 10  1  0
  9  7  1  6
 11 18  1  0
 12 21  1  0
 13 19  2  0
 14  2  1  0
 14 10  2  0
 15  1  1  1
 20 16  1  6
 17  8  1  0
 17 11  1  0
 18 13  1  0
 20  3  1  0
 20 13  1  0
 21 15  1  0
M  END
>  <rank>  (40) 
40

>  <composite_score>  (40) 
0.5106

>  <smiles>  (40) 
CC1N=C(CN2SC(=O)C(F)(F)CC2=O)SC1C(N)OO

$$$$
3pbq_imipenem_iter1_filtered_264
     RDKit          3D

 19 20  0  0  0  0  0  0  0  0999 V2000
   -7.5070   -3.0930  -15.8000 C   0  0  0  0  0  0  0  0  0  0  0  0
   -2.7960   -0.9780  -19.0160 C   0  0  0  0  0  0  0  0  0  0  0  0
   -3.3830   -1.9610  -18.1610 C   0  0  1  0  0  0  0  0  0  0  0  0
   -2.7200   -2.9330  -17.3640 C   0  0  0  0  0  0  0  0  0  0  0  0
   -7.0850   -3.6880  -14.8660 O   0  0  0  0  0  0  0  0  0  0  0  0
   -6.6620   -2.5200  -16.8320 C   0  0  0  0  0  0  0  0  0  0  0  0
   -5.3600   -2.5410  -16.9300 C   0  0  0  0  0  0  0  0  0  0  0  0
   -8.8410   -2.9020  -16.2220 N   0  0  0  0  0  0  0  0  0  0  0  0
   -1.2900   -0.9020  -19.2010 C   0  0  1  0  0  0  0  0  0  0  0  0
   -4.7810   -1.8460  -18.0890 C   0  0  0  0  0  0  0  0  0  0  0  0
   -8.5790   -1.5760  -18.1650 C   0  0  0  0  0  0  0  0  0  0  0  0
   -7.1110   -1.7850  -18.0140 C   0  0  0  0  0  0  0  0  0  0  0  0
   -0.4920   -0.9410  -17.8420 C   0  0  0  0  0  0  0  0  0  0  0  0
   -6.0270   -1.2560  -18.7890 C   0  0  0  0  0  0  0  0  0  0  0  0
   -9.4870   -2.1620  -17.2180 C   0  0  0  0  0  0  0  0  0  0  0  0
   -2.1370   -3.1550  -16.2900 O   0  0  0  0  0  0  0  0  0  0  0  0
   -0.7880   -2.0880  -20.0320 C   0  0  0  0  0  0  0  0  0  0  0  0
   -4.6950   -2.9260  -15.9990 O   0  0  0  0  0  0  0  0  0  0  0  0
   -3.4030   -0.2810  -19.7640 O   0  0  0  0  0  0  0  0  0  0  0  0
  1  5  2  0
  2  3  1  0
  3 10  1  0
  3  4  1  1
  4 16  2  0
  6  1  1  0
  7  6  1  0
  7 18  2  0
  8  1  1  0
  9  2  1  0
  9 13  1  1
 10  7  1  0
 11 12  1  0
 11 15  1  0
 12  6  2  0
 14 10  2  0
 14 12  1  0
 15  8  2  0
 17  9  1  0
 19  2  2  0
M  END
>  <rank>  (41) 
41

>  <composite_score>  (41) 
0.5086

>  <smiles>  (41) 
CC(C)C(=O)C(C=O)C1=CC2=C(C(=O)N=CC2)C1=O

$$$$
3pbq_imipenem_iter1_filtered_202
     RDKit          3D

 22 24  0  0  0  0  0  0  0  0999 V2000
   -1.0160   -1.2100  -16.6510 O   0  0  0  0  0  0  0  0  0  0  0  0
   -7.4160   -1.2650  -18.3870 C   0  0  0  0  0  0  0  0  0  0  0  0
   -4.4830   -2.3290  -16.7390 C   0  0  2  0  0  0  0  0  0  0  0  0
   -4.3000   -3.1530  -15.5530 C   0  0  0  0  0  0  0  0  0  0  0  0
   -1.1380   -1.1340  -17.8600 C   0  0  0  0  0  0  0  0  0  0  0  0
   -3.4520   -0.7320  -17.9750 C   0  0  2  0  0  0  0  0  0  0  0  0
   -8.2300   -4.1760  -15.2150 O   0  0  0  0  0  0  0  0  0  0  0  0
   -0.0270   -1.3800  -18.5020 C   0  0  0  0  0  0  0  0  0  0  0  0
   -7.7290   -3.2160  -16.3020 C   0  0  2  0  0  0  0  0  0  0  0  0
   -6.3800   -2.3050  -16.7080 C   0  0  2  0  0  0  0  0  0  0  0  0
   -8.9790   -2.6810  -16.8850 C   0  0  0  0  0  0  0  0  0  0  0  0
    0.1500   -1.3880  -19.8090 C   0  0  0  0  0  0  0  0  0  0  0  0
   -5.5250   -1.4350  -18.8710 C   0  0  0  0  0  0  0  0  0  0  0  0
   -5.6260   -3.8320  -15.8450 O   0  0  0  0  0  0  0  0  0  0  0  0
   -2.8500   -2.7490  -17.7640 C   0  0  0  0  0  0  0  0  0  0  0  0
   -3.6740   -2.1450  -17.4220 C   0  0  0  0  0  0  0  0  0  0  0  0
   -2.1280   -0.7440  -19.7410 C   0  0  0  0  0  0  0  0  0  0  0  0
   -4.4910   -0.6920  -19.2160 C   0  0  0  0  0  0  0  0  0  0  0  0
   -8.7600   -1.8940  -17.8400 C   0  0  0  0  0  0  0  0  0  0  0  0
   -0.9410   -0.9000  -20.4030 C   0  0  0  0  0  0  0  0  0  0  0  0
   -2.1780   -0.7430  -18.4880 C   0  0  0  0  0  0  0  0  0  0  0  0
   -6.6760   -1.6250  -17.9400 C   0  0  0  0  0  0  0  0  0  0  0  0
  2 22  1  0
  2 19  1  0
  3 10  1  0
  3  4  1  6
  5  1  2  0
  6 21  1  6
  6 16  1  0
  8  5  1  0
  9  7  1  1
 10  9  1  0
 11  9  1  0
 12  8  2  0
 13 22  1  0
 14  4  1  0
 15 16  2  0
 16  3  1  0
 17 21  2  0
 18 13  1  0
 18  6  1  0
 19 11  1  0
 20 12  1  0
 20 17  1  0
 21  5  1  0
 10 22  1  6
M  END
>  <rank>  (42) 
42

>  <composite_score>  (42) 
0.5055

>  <smiles>  (42) 
C=C1C(C2=CCC=CC2=O)CCC2CCCC(O)C2C1CO

$$$$
3pbq_imipenem_iter1_filtered_324
     RDKit          3D

 20 22  0  0  0  0  0  0  0  0999 V2000
   -7.2930   -1.8570  -17.5540 C   0  0  0  0  0  0  0  0  0  0  0  0
   -8.1430   -4.1300  -15.2410 C   0  0  0  0  0  0  0  0  0  0  0  0
   -0.6040   -2.7660  -15.6510 O   0  0  0  0  0  0  0  0  0  0  0  0
   -1.8970   -1.9590  -18.7940 C   0  0  0  0  0  0  0  0  0  0  0  0
   -5.2560   -1.4600  -18.7660 C   0  0  0  0  0  0  0  0  0  0  0  0
   -0.3100   -0.7940  -18.1160 C   0  0  1  0  0  0  0  0  0  0  0  0
   -1.2740   -2.4000  -16.5840 C   0  0  0  0  0  0  0  0  0  0  0  0
   -1.3860    0.2480  -17.8980 C   0  0  0  0  0  0  0  0  0  0  0  0
   -5.8020   -3.9810  -15.0710 N   0  0  0  0  0  0  0  0  0  0  0  0
   -6.8940   -3.5070  -15.5360 C   0  0  1  0  0  0  0  0  0  0  0  0
   -2.9230   -2.5900  -17.9660 C   0  0  1  0  0  0  0  0  0  0  0  0
   -4.7770   -3.3630  -15.6680 N   0  0  0  0  0  0  0  0  0  0  0  0
   -2.5650   -2.7070  -16.7700 O   0  0  0  0  0  0  0  0  0  0  0  0
   -5.1420   -2.6210  -16.6570 C   0  0  0  0  0  0  0  0  0  0  0  0
   -4.3330   -1.8900  -17.6720 C   0  0  2  0  0  0  0  0  0  0  0  0
   -6.6060   -2.6470  -16.6520 C   0  0  0  0  0  0  0  0  0  0  0  0
   -0.6160   -2.0490  -17.9010 C   0  0  1  0  0  0  0  0  0  0  0  0
    0.6850   -0.3530  -19.1310 C   0  0  0  0  0  0  0  0  0  0  0  0
   -8.8350   -1.6640  -17.5770 C   0  0  0  0  0  0  0  0  0  0  0  0
   -6.5610   -1.2870  -18.5710 N   0  0  0  0  0  0  0  0  0  0  0  0
  1 16  1  0
 17  4  1  6
  5 20  1  0
  6  8  1  6
  7  3  2  0
 10  2  1  6
 10  9  1  0
 11  4  1  6
 11 15  1  0
 11 13  1  0
 12  9  2  0
 13  7  1  0
 14 16  2  0
 14 12  1  0
 15  5  1  6
 15 14  1  0
 16 10  1  0
 17  6  1  0
 17  7  1  0
 18  6  1  0
 19  1  1  0
 20  1  2  0
M  END
>  <rank>  (43) 
43

>  <composite_score>  (43) 
0.5038

>  <smiles>  (43) 
CC1=NCC(C2CC(C(C)C)C(=O)O2)C2=C1C(C)N=N2

$$$$
3pbq_imipenem_iter1_filtered_37
     RDKit          3D

 22 24  0  0  0  0  0  0  0  0999 V2000
   -9.5020   -4.4290  -16.9810 N   0  0  0  0  0  0  0  0  0  0  0  0
   -5.7720   -3.1960  -15.3500 N   0  0  0  0  0  0  0  0  0  0  0  0
   -2.4820   -3.2630  -15.8680 C   0  0  0  0  0  0  0  0  0  0  0  0
   -1.8190   -0.9650  -19.7740 C   0  0  2  0  0  0  0  0  0  0  0  0
   -9.7360   -2.0050  -17.4340 O   0  0  0  0  0  0  0  0  0  0  0  0
   -1.7400   -1.0090  -17.1050 C   0  0  1  0  0  0  0  0  0  0  0  0
   -5.4990   -2.3350  -16.4060 C   0  0  2  0  0  0  0  0  0  0  0  0
   -2.7460   -1.7650  -16.1340 C   0  0  1  0  0  0  0  0  0  0  0  0
   -6.5540   -1.7640  -18.4660 N   0  0  0  0  0  0  0  0  0  0  0  0
   -6.6320   -2.2970  -17.2430 C   0  0  0  0  0  0  0  0  0  0  0  0
   -2.7830   -0.6060  -20.6950 F   0  0  0  0  0  0  0  0  0  0  0  0
   -4.0160   -1.5290  -18.2680 C   0  0  1  0  0  0  0  0  0  0  0  0
   -1.5890    0.2350  -16.5250 F   0  0  0  0  0  0  0  0  0  0  0  0
   -9.1040   -3.0780  -16.8930 C   0  0  0  0  0  0  0  0  0  0  0  0
   -0.4800   -1.4710  -17.2810 O   0  0  0  0  0  0  0  0  0  0  0  0
   -4.2470   -1.5630  -16.7600 C   0  0  1  0  0  0  0  0  0  0  0  0
   -7.1430   -3.4940  -15.4670 N   0  0  0  0  0  0  0  0  0  0  0  0
   -0.9820    0.2150  -19.7530 F   0  0  0  0  0  0  0  0  0  0  0  0
   -7.6720   -2.9360  -16.4660 C   0  0  0  0  0  0  0  0  0  0  0  0
   -5.3130   -1.4030  -19.1330 C   0  0  0  0  0  0  0  0  0  0  0  0
   -1.0210   -1.7240  -20.4710 F   0  0  0  0  0  0  0  0  0  0  0  0
   -2.6500   -0.8570  -18.3560 C   0  0  2  0  0  0  0  0  0  0  0  0
  1 14  1  0
  4 18  1  1
 22  4  1  6
  5 14  2  0
  6 15  1  6
  6 13  1  0
  6  8  1  0
  7 10  1  0
  7  2  1  6
  8  3  1  6
  9 10  1  0
 10 19  2  0
 11  4  1  0
 12 20  1  6
 12 16  1  0
 14 19  1  0
 16  7  1  6
 16  8  1  0
 17  2  1  0
 19 17  1  0
 20  9  2  0
 21  4  1  0
 22 12  1  0
 22  6  1  0
M  END
>  <rank>  (44) 
44

>  <composite_score>  (44) 
0.5033

>  <smiles>  (44) 
CC1C2C3NNC(C(N)=O)=C3N=CC2C(C(F)(F)F)C1(O)F

$$$$
3pbq_imipenem_iter1_filtered_73
     RDKit          3D

 25 26  0  0  0  0  0  0  0  0999 V2000
   -4.2750   -2.9930  -16.3990 O   0  0  0  0  0  0  0  0  0  0  0  0
   -7.5390   -4.6700  -14.8860 O   0  0  0  0  0  0  0  0  0  0  0  0
   -7.1240   -1.8870  -18.4340 C   0  0  0  0  0  0  0  0  0  0  0  0
   -0.2930   -2.6240  -20.1150 C   0  0  0  0  0  0  0  0  0  0  0  0
    1.0660   -1.0560  -21.0510 O   0  0  0  0  0  0  0  0  0  0  0  0
   -8.2590   -1.2160  -18.4070 N   0  0  0  0  0  0  0  0  0  0  0  0
   -3.0820   -0.3010  -17.6250 C   0  0  0  0  0  0  0  0  0  0  0  0
   -7.1240   -3.3490  -14.9890 C   0  0  0  0  0  0  0  0  0  0  0  0
   -4.0560   -2.4150  -17.2720 C   0  0  0  0  0  0  0  0  0  0  0  0
   -9.1770   -1.4450  -17.3540 C   0  0  0  0  0  0  0  0  0  0  0  0
   -7.0920   -2.9210  -19.1800 O   0  0  0  0  0  0  0  0  0  0  0  0
    0.3020   -0.1440  -19.2900 C   0  0  0  0  0  0  0  0  0  0  0  0
   -2.9760   -1.7150  -17.7150 C   0  0  1  0  0  0  0  0  0  0  0  0
   -1.8720    0.2770  -16.8620 C   0  0  0  0  0  0  0  0  0  0  0  0
   -0.5350    0.1000  -17.6400 C   0  0  0  0  0  0  0  0  0  0  0  0
   -2.2910   -1.9550  -18.5270 C   0  0  2  0  0  0  0  0  0  0  0  0
   -5.9300   -1.5390  -17.6280 C   0  0  0  0  0  0  0  0  0  0  0  0
    0.5770   -1.4960  -19.8680 C   0  0  1  0  0  0  0  0  0  0  0  0
   -8.2300   -3.8740  -15.3650 C   0  0  1  0  0  0  0  0  0  0  0  0
   -8.9440   -3.8370  -16.3300 O   0  0  0  0  0  0  0  0  0  0  0  0
   -0.9070   -2.8800  -18.7280 C   0  0  0  0  0  0  0  0  0  0  0  0
   -8.7300   -2.2400  -16.3770 O   0  0  0  0  0  0  0  0  0  0  0  0
  -10.5350   -0.6300  -17.5200 S   0  0  0  0  0  0  0  0  0  0  0  0
   -2.4720   -0.8970  -19.8020 C   0  0  0  0  0  0  0  0  0  0  0  0
   -5.0780   -2.1490  -17.9070 N   0  0  0  0  0  0  0  0  0  0  0  0
  3  6  1  0
  3 17  1  0
  4 18  1  0
  4 21  1  0
  6 10  1  0
  7 14  1  0
  8  2  1  0
  9  1  2  0
 10 22  1  0
 11  3  2  0
 12 15  1  0
 13  7  1  0
 13  9  1  6
 15 14  1  0
 16 24  1  1
 16 13  1  0
 18  5  1  6
 18 12  1  0
 19 20  1  6
 19  8  1  0
 19  2  1  0
 21 16  1  0
 22 20  1  0
 23 10  2  0
 25 17  1  0
 25  9  1  0
M  END
>  <rank>  (45) 
45

>  <composite_score>  (45) 
0.4983

>  <smiles>  (45) 
CC1CCC(O)CCCCC1C(=O)NCC(=O)NC(=S)OOC1CO1

$$$$
3pbq_imipenem_iter1_filtered_336
     RDKit          3D

 19 21  0  0  0  0  0  0  0  0999 V2000
   -7.4430   -3.0110  -15.5250 F   0  0  0  0  0  0  0  0  0  0  0  0
   -8.1920   -1.1040  -18.1080 F   0  0  0  0  0  0  0  0  0  0  0  0
   -4.1650   -1.0830  -18.9460 C   0  0  0  0  0  0  0  0  0  0  0  0
   -5.4300   -2.4500  -16.7850 N   0  0  0  0  0  0  0  0  0  0  0  0
   -3.4960   -0.3140  -19.9930 C   0  0  0  0  0  0  0  0  0  0  0  0
   -7.6950   -2.2660  -17.8950 C   0  0  1  0  0  0  0  0  0  0  0  0
   -2.1630    0.0740  -19.6060 C   0  0  0  0  0  0  0  0  0  0  0  0
   -9.0750   -4.0250  -16.8240 F   0  0  0  0  0  0  0  0  0  0  0  0
   -2.1450   -1.6660  -17.8020 C   0  0  1  0  0  0  0  0  0  0  0  0
   -3.5360   -1.5710  -17.9350 C   0  0  0  0  0  0  0  0  0  0  0  0
   -1.5370   -0.4160  -18.3990 C   0  0  0  0  0  0  0  0  0  0  0  0
   -8.3160   -2.8090  -16.6880 C   0  0  1  0  0  0  0  0  0  0  0  0
   -3.1720   -2.4580  -15.8120 C   0  0  0  0  0  0  0  0  0  0  0  0
   -8.0010   -3.0750  -18.9260 F   0  0  0  0  0  0  0  0  0  0  0  0
   -4.2280   -2.1170  -16.8600 C   0  0  0  0  0  0  0  0  0  0  0  0
   -6.2470   -2.1080  -17.8100 C   0  0  0  0  0  0  0  0  0  0  0  0
   -5.5580   -1.3280  -18.9630 C   0  0  0  0  0  0  0  0  0  0  0  0
   -1.9740   -1.8300  -16.3720 N   0  0  0  0  0  0  0  0  0  0  0  0
   -9.2770   -1.8610  -16.2430 F   0  0  0  0  0  0  0  0  0  0  0  0
  6  2  1  6
  3 10  2  0
  5  7  1  0
  5  3  1  0
  6 16  1  0
  6 12  1  0
  7 11  1  0
 12  8  1  6
  9 11  1  1
  9 18  1  0
 10  9  1  0
 10 15  1  0
 12 19  1  0
 12  1  1  0
 14  6  1  0
 15  4  2  0
 15 13  1  0
 16  4  1  0
 17  3  1  0
 17 16  2  0
 18 13  1  0
M  END
>  <rank>  (46) 
46

>  <composite_score>  (46) 
0.4977

>  <smiles>  (46) 
FC(F)(F)C(F)(F)c1cc2c3c(n1)CNC3CCC2

$$$$
3pbq_imipenem_iter1_filtered_163
     RDKit          3D

 20 22  0  0  0  0  0  0  0  0999 V2000
   -2.3510   -0.8500  -17.3040 C   0  0  0  0  0  0  0  0  0  0  0  0
   -6.1920   -2.9860  -16.0320 C   0  0  0  0  0  0  0  0  0  0  0  0
   -5.0180   -3.2550  -15.3990 O   0  0  0  0  0  0  0  0  0  0  0  0
   -8.6050   -2.4400  -16.4410 C   0  0  0  0  0  0  0  0  0  0  0  0
   -3.1430   -0.4060  -19.7020 C   0  0  0  0  0  0  0  0  0  0  0  0
   -7.8510   -2.2780  -17.4080 C   0  0  0  0  0  0  0  0  0  0  0  0
   -4.5090   -1.6350  -18.0290 C   0  0  0  0  0  0  0  0  0  0  0  0
   -6.5360   -2.4430  -17.2530 C   0  0  2  0  0  0  0  0  0  0  0  0
   -4.3020   -1.1630  -19.4570 C   0  0  0  0  0  0  0  0  0  0  0  0
   -7.3120   -2.9620  -15.3210 N   0  0  0  0  0  0  0  0  0  0  0  0
   -2.2620   -0.1200  -18.6500 C   0  0  0  0  0  0  0  0  0  0  0  0
   -2.8880   -2.4780  -15.7290 C   0  0  0  0  0  0  0  0  0  0  0  0
   -6.0250   -3.1380  -19.1130 O   0  0  0  0  0  0  0  0  0  0  0  0
   -1.2650   -0.5910  -16.3500 F   0  0  0  0  0  0  0  0  0  0  0  0
   -3.3870   -1.4870  -16.8970 C   0  0  0  0  0  0  0  0  0  0  0  0
   -1.4740    0.9130  -18.8520 F   0  0  0  0  0  0  0  0  0  0  0  0
   -2.8580    0.3160  -20.6960 F   0  0  0  0  0  0  0  0  0  0  0  0
   -3.7630   -3.6910  -15.9850 C   0  0  0  0  0  0  0  0  0  0  0  0
   -8.0790   -1.6540  -18.6890 N   0  0  0  0  0  0  0  0  0  0  0  0
   -5.6740   -2.4210  -18.2040 N   0  0  0  0  0  0  0  0  0  0  0  0
  1 15  2  0
  1 14  1  0
  2  3  1  0
  2 10  2  0
  4 10  1  0
  5  9  1  0
  5 11  2  0
  6  4  2  0
  7 15  1  0
  8  6  1  0
  8  2  1  0
  9  7  2  0
 11  1  1  0
 13 20  1  0
 15 12  1  0
 16 11  1  0
 17  5  1  0
 18 12  1  0
 18  3  1  0
 19  6  1  0
 20  7  1  0
  8 20  1  6
M  END
>  <rank>  (47) 
47

>  <composite_score>  (47) 
0.4964

>  <smiles>  (47) 
NC1=CN=C2OCCc3c(cc(F)c(F)c3F)N(O)C12

$$$$
3pbq_imipenem_iter1_filtered_160
     RDKit          3D

 19 21  0  0  0  0  0  0  0  0999 V2000
   -0.9130   -1.2960  -19.9390 C   0  0  0  0  0  0  0  0  0  0  0  0
   -4.8490   -3.1410  -15.2030 N   0  0  0  0  0  0  0  0  0  0  0  0
   -0.7900   -2.4850  -19.1970 N   0  0  0  0  0  0  0  0  0  0  0  0
   -8.0710   -2.1260  -17.7470 C   0  0  0  0  0  0  0  0  0  0  0  0
   -1.4970   -3.9210  -17.5330 O   0  0  0  0  0  0  0  0  0  0  0  0
   -5.2560   -2.2480  -17.2020 C   0  0  0  0  0  0  0  0  0  0  0  0
   -3.7030   -2.8330  -15.6230 C   0  0  0  0  0  0  0  0  0  0  0  0
   -3.8300   -2.3180  -16.9100 C   0  0  0  0  0  0  0  0  0  0  0  0
   -2.0810   -0.4950  -19.7860 C   0  0  0  0  0  0  0  0  0  0  0  0
   -2.7920   -2.0210  -17.9070 C   0  0  0  0  0  0  0  0  0  0  0  0
   -5.8010   -1.7140  -18.3270 C   0  0  0  0  0  0  0  0  0  0  0  0
   -7.1600   -1.6890  -18.5650 C   0  0  0  0  0  0  0  0  0  0  0  0
   -1.6830   -2.8760  -18.1340 C   0  0  0  0  0  0  0  0  0  0  0  0
   -8.2430   -2.8680  -16.7580 N   0  0  0  0  0  0  0  0  0  0  0  0
    0.0680   -1.0690  -21.0350 F   0  0  0  0  0  0  0  0  0  0  0  0
   -5.8740   -2.8960  -16.1310 C   0  0  0  0  0  0  0  0  0  0  0  0
   -2.9760   -0.8130  -18.6940 C   0  0  0  0  0  0  0  0  0  0  0  0
   -7.3930   -4.1670  -15.0730 O   0  0  0  0  0  0  0  0  0  0  0  0
   -7.2600   -3.3900  -15.8920 C   0  0  0  0  0  0  0  0  0  0  0  0
  1  9  1  0
  1  3  2  0
  3 13  1  0
  4 14  1  0
  6  8  2  0
  6 16  1  0
  7  2  1  0
  8  7  1  0
  9 17  1  0
 10  8  1  0
 11  6  1  0
 12 11  2  0
 12  4  1  0
 13 10  1  0
 13  5  2  0
 14 19  1  0
 15  1  1  0
 16 19  1  0
 16  2  2  0
 17 10  2  0
 19 18  2  0
M  END
>  <rank>  (48) 
48

>  <composite_score>  (48) 
0.4916

>  <smiles>  (48) 
O=C1N=C(F)CC=C1C1=C2C=CCNC(=O)C2=NC1

$$$$
3pbq_imipenem_iter1_filtered_114
     RDKit          3D

 21 24  0  0  0  0  0  0  0  0999 V2000
   -1.3620   -0.6020  -18.6960 C   0  0  0  0  0  0  0  0  0  0  0  0
   -8.9170   -2.8720  -16.8200 N   0  0  0  0  0  0  0  0  0  0  0  0
   -6.6240   -1.3010  -19.0310 N   0  0  0  0  0  0  0  0  0  0  0  0
   -2.7110   -2.7990  -15.9500 C   0  0  2  0  0  0  0  0  0  0  0  0
    0.3900   -0.4370  -16.9830 C   0  0  0  0  0  0  0  0  0  0  0  0
   -4.5480   -1.8150  -17.7150 C   0  0  2  0  0  0  0  0  0  0  0  0
   -8.2420   -0.4820  -18.1150 O   0  0  0  0  0  0  0  0  0  0  0  0
    0.0730   -0.6380  -18.3590 C   0  0  0  0  0  0  0  0  0  0  0  0
   -3.1080   -1.6930  -17.8080 C   0  0  2  0  0  0  0  0  0  0  0  0
   -9.0800   -4.1280  -16.2960 C   0  0  0  0  0  0  0  0  0  0  0  0
   -1.0550   -0.6060  -16.4430 C   0  0  1  0  0  0  0  0  0  0  0  0
  -10.0560   -2.5520  -17.5380 C   0  0  0  0  0  0  0  0  0  0  0  0
   -2.5640   -2.3860  -17.4450 C   0  0  0  0  0  0  0  0  0  0  0  0
   -6.4000   -2.8130  -16.2770 C   0  0  0  0  0  0  0  0  0  0  0  0
   -4.1640   -2.6980  -15.5620 O   0  0  0  0  0  0  0  0  0  0  0  0
   -1.9460   -0.3560  -17.4800 C   0  0  1  0  0  0  0  0  0  0  0  0
   -5.1370   -2.6440  -16.4630 C   0  0  0  0  0  0  0  0  0  0  0  0
   -7.5110   -1.4080  -18.0710 C   0  0  0  0  0  0  0  0  0  0  0  0
   -5.3710   -1.5470  -18.8660 C   0  0  0  0  0  0  0  0  0  0  0  0
   -7.6520   -2.3850  -17.1850 C   0  0  2  0  0  0  0  0  0  0  0  0
   -1.2420   -2.0780  -16.0030 C   0  0  0  0  0  0  0  0  0  0  0  0
  1  8  1  0
  2 10  1  0
  3 19  2  0
  3 18  1  0
  4 13  1  0
  4 15  1  0
  6 19  1  6
  6 17  1  0
  7 18  2  0
  8  5  1  0
  9  6  1  0
  9 16  1  0
  9 13  1  1
 11  5  1  6
 11 21  1  0
 12  2  1  0
 16  1  1  6
 16 11  1  0
 17 14  2  0
 17 15  1  0
 18 20  1  0
 20  2  1  1
 20 14  1  0
  4 21  1  1
M  END
>  <rank>  (49) 
49

>  <composite_score>  (49) 
0.4912

>  <smiles>  (49) 
CN(C)C1C=C2OC3CC4CCCC4C(C3)C2C=NC1=O

$$$$
3pbq_imipenem_iter1_filtered_247
     RDKit          3D

 19 22  0  0  0  0  0  0  0  0999 V2000
   -4.7290   -2.1910  -18.9360 C   0  0  1  0  0  0  0  0  0  0  0  0
   -1.2540   -1.4610  -19.6690 C   0  0  0  0  0  0  0  0  0  0  0  0
   -1.9960   -3.1810  -15.9840 C   0  0  1  0  0  0  0  0  0  0  0  0
   -4.2550   -2.4010  -16.7660 C   0  0  0  0  0  0  0  0  0  0  0  0
   -8.6610   -1.0190  -16.9470 O   0  0  0  0  0  0  0  0  0  0  0  0
   -3.7790   -0.9330  -19.5070 C   0  0  0  0  0  0  0  0  0  0  0  0
   -8.8710   -3.2500  -17.6690 O   0  0  0  0  0  0  0  0  0  0  0  0
   -3.6750   -2.2930  -18.1650 C   0  0  1  0  0  0  0  0  0  0  0  0
   -5.6880   -2.4550  -16.4160 C   0  0  0  0  0  0  0  0  0  0  0  0
   -2.6620   -1.4880  -18.9290 C   0  0  1  0  0  0  0  0  0  0  0  0
   -6.1050   -1.4750  -18.5250 C   0  0  1  0  0  0  0  0  0  0  0  0
   -8.1710   -2.2820  -16.8760 S   0  0  2  0  0  0  0  0  0  0  0  0
   -0.8310   -2.4320  -15.3240 C   0  0  0  0  0  0  0  0  0  0  0  0
   -8.1410   -2.7760  -15.4950 O   0  0  0  0  0  0  0  0  0  0  0  0
   -2.2730   -1.9130  -16.7710 C   0  0  2  0  0  0  0  0  0  0  0  0
   -3.7650   -1.6470  -17.1120 C   0  0  2  0  0  0  0  0  0  0  0  0
   -1.0110   -2.5300  -16.8330 C   0  0  2  0  0  0  0  0  0  0  0  0
   -7.0960   -1.4410  -19.6170 C   0  0  0  0  0  0  0  0  0  0  0  0
   -6.7130   -2.2190  -17.3690 C   0  0  2  0  0  0  0  0  0  0  0  0
  1  6  1  6
  1 11  1  0
  1  8  1  0
 10  2  1  6
  3 13  1  1
  4  9  1  0
 12  5  1  1
  6 10  1  0
  7 12  1  0
  8 16  1  0
  8 10  1  6
 11 19  1  0
 12 14  1  0
 15  3  1  0
 15 16  1  6
 16  4  1  1
 17 15  1  0
 17  3  1  0
 17 13  1  1
 11 18  1  6
 19 12  1  0
 19  9  1  1
M  END
>  <rank>  (50) 
50

>  <composite_score>  (50) 
0.4911

>  <smiles>  (50) 
CC1CC2C(C)C(S(O)(O)O)CCC(C3C4CC43)C12

$$$$
