3pbq_imipenem_iter2_all_filtered_60
     RDKit          3D

 19 22  0  0  0  0  0  0  0  0999 V2000
   -1.2950   -1.1450  -17.3160 C   0  0  0  0  0  0  0  0  0  0  0  0
   -3.7100   -1.9100  -16.9520 C   0  0  0  0  0  0  0  0  0  0  0  0
   -2.6070   -1.2610  -17.7520 C   0  0  0  0  0  0  0  0  0  0  0  0
   -8.3080   -3.2100  -16.1480 C   0  0  0  0  0  0  0  0  0  0  0  0
   -4.9300   -1.8080  -17.7430 C   0  0  0  0  0  0  0  0  0  0  0  0
   -6.2200   -3.5170  -15.3000 C   0  0  0  0  0  0  0  0  0  0  0  0
   -6.8840   -0.9260  -19.7200 C   0  0  0  0  0  0  0  0  0  0  0  0
   -4.5600   -1.1090  -18.9720 C   0  0  0  0  0  0  0  0  0  0  0  0
   -9.4110   -3.0350  -16.9670 N   0  0  0  0  0  0  0  0  0  0  0  0
   -3.1520   -0.8940  -18.9880 O   0  0  0  0  0  0  0  0  0  0  0  0
   -7.1810   -4.0310  -14.4310 O   0  0  0  0  0  0  0  0  0  0  0  0
   -3.2820   -2.4730  -15.6410 C   0  0  0  0  0  0  0  0  0  0  0  0
   -5.5000   -0.6680  -19.9920 C   0  0  0  0  0  0  0  0  0  0  0  0
   -6.3820   -2.1200  -17.5520 C   0  0  0  0  0  0  0  0  0  0  0  0
   -0.9410   -1.4930  -15.9140 C   0  0  0  0  0  0  0  0  0  0  0  0
   -6.9210   -2.9180  -16.4440 C   0  0  0  0  0  0  0  0  0  0  0  0
   -8.4370   -3.8130  -14.9600 N   0  0  0  0  0  0  0  0  0  0  0  0
   -7.2860   -1.6030  -18.5690 C   0  0  0  0  0  0  0  0  0  0  0  0
   -1.9820   -2.2200  -15.1000 C   0  0  0  0  0  0  0  0  0  0  0  0
  1 15  2  0
  2 12  1  0
  3  1  1  0
  3  2  2  0
  4 17  2  0
  5 14  1  0
  5  2  1  0
  6 11  1  0
  7 18  1  0
  8  5  2  0
  9  4  1  0
 10  8  1  0
 10  3  1  0
 12 19  2  0
 13  7  2  0
 13  8  1  0
 14 16  1  0
 15 19  1  0
 16  4  1  0
 16  6  2  0
 17 11  1  0
 18 14  2  0
M  END
>  <rank>  (1) 
1

>  <composite_score>  (1) 
0.6609

>  <smiles>  (1) 
Nc1nocc1-c1cccc2oc3ccccc3c12

$$$$
3pbq_imipenem_iter2_all_filtered_99
     RDKit          3D

 19 21  0  0  0  0  0  0  0  0999 V2000
   -4.4400   -2.3290  -16.2590 C   0  0  0  0  0  0  0  0  0  0  0  0
   -5.6440   -1.5160  -18.2270 C   0  0  0  0  0  0  0  0  0  0  0  0
   -0.2180    0.8770  -19.8940 C   0  0  0  0  0  0  0  0  0  0  0  0
   -9.1840   -3.1440  -16.6110 O   0  0  0  0  0  0  0  0  0  0  0  0
   -3.3010   -1.1520  -18.0890 C   0  0  0  0  0  0  0  0  0  0  0  0
   -4.4310   -1.0910  -18.8020 C   0  0  0  0  0  0  0  0  0  0  0  0
   -0.0550    0.7890  -18.3730 C   0  0  0  0  0  0  0  0  0  0  0  0
   -8.0230   -2.6250  -17.0630 C   0  0  0  0  0  0  0  0  0  0  0  0
   -0.9400   -0.2410  -17.7100 C   0  0  0  0  0  0  0  0  0  0  0  0
   -6.9040   -1.3580  -18.8630 C   0  0  0  0  0  0  0  0  0  0  0  0
   -1.7910   -1.0780  -19.9430 C   0  0  0  0  0  0  0  0  0  0  0  0
   -3.3020   -1.8370  -16.8080 C   0  0  0  0  0  0  0  0  0  0  0  0
   -8.0610   -1.8600  -18.2740 C   0  0  0  0  0  0  0  0  0  0  0  0
   -1.8340   -2.1360  -16.0590 Cl  0  0  0  0  0  0  0  0  0  0  0  0
   -6.8030   -2.6980  -16.4410 C   0  0  0  0  0  0  0  0  0  0  0  0
   -5.6400   -2.1790  -16.9480 C   0  0  0  0  0  0  0  0  0  0  0  0
   -0.5470   -0.4610  -20.5260 C   0  0  0  0  0  0  0  0  0  0  0  0
   -2.0340   -0.7100  -18.5900 N   0  0  0  0  0  0  0  0  0  0  0  0
   -6.7600   -3.4000  -14.9140 Cl  0  0  0  0  0  0  0  0  0  0  0  0
  2 16  2  0
  3  7  1  0
  5 12  1  0
  6  2  1  0
  6  5  2  0
  7  9  1  0
  8  4  1  0
  8 15  2  0
 10 13  2  0
 10  2  1  0
 11 18  1  0
 12  1  2  0
 12 14  1  0
 13  8  1  0
 15 19  1  0
 16 15  1  0
 16  1  1  0
 17 11  1  0
 17  3  1  0
 18  5  1  0
 18  9  1  0
M  END
>  <rank>  (2) 
2

>  <composite_score>  (2) 
0.6593

>  <smiles>  (2) 
Oc1ccc2cc(N3CCCCC3)c(Cl)cc2c1Cl

$$$$
3pbq_imipenem_iter2_all_filtered_82
     RDKit          3D

 22 25  0  0  0  0  0  0  0  0999 V2000
   -2.6710   -1.0120  -19.6780 C   0  0  0  0  0  0  0  0  0  0  0  0
   -2.2820   -2.2630  -15.4530 C   0  0  0  0  0  0  0  0  0  0  0  0
   -3.8360   -1.1680  -18.7670 C   0  0  0  0  0  0  0  0  0  0  0  0
   -1.3930   -1.3210  -19.1520 C   0  0  0  0  0  0  0  0  0  0  0  0
   -0.2700   -1.5260  -20.0580 C   0  0  0  0  0  0  0  0  0  0  0  0
   -2.3570   -1.7960  -16.8980 C   0  0  0  0  0  0  0  0  0  0  0  0
   -3.6760   -1.6100  -17.4320 C   0  0  0  0  0  0  0  0  0  0  0  0
   -9.4330   -2.9900  -16.9530 C   0  0  0  0  0  0  0  0  0  0  0  0
   -7.0790   -3.5890  -15.5710 C   0  0  0  0  0  0  0  0  0  0  0  0
  -10.5800   -2.7220  -17.5830 O   0  0  0  0  0  0  0  0  0  0  0  0
   -6.0180   -1.9820  -17.2270 C   0  0  0  0  0  0  0  0  0  0  0  0
   -9.4020   -3.9560  -15.9040 C   0  0  0  0  0  0  0  0  0  0  0  0
   -8.2790   -4.2460  -15.2450 C   0  0  0  0  0  0  0  0  0  0  0  0
   -0.0380   -2.0790  -17.2090 O   0  0  0  0  0  0  0  0  0  0  0  0
    0.9960   -1.1290  -17.1430 C   0  0  0  0  0  0  0  0  0  0  0  0
   -7.9270   -1.5430  -18.4160 C   0  0  0  0  0  0  0  0  0  0  0  0
   -6.4750   -1.4390  -18.4180 C   0  0  0  0  0  0  0  0  0  0  0  0
   -1.3120   -1.6620  -17.6820 C   0  0  0  0  0  0  0  0  0  0  0  0
   -4.8000   -1.9280  -16.7080 N   0  0  0  0  0  0  0  0  0  0  0  0
   -5.3520   -0.8130  -19.5050 S   0  0  0  0  0  0  0  0  0  0  0  0
   -8.2420   -2.4160  -17.3470 C   0  0  0  0  0  0  0  0  0  0  0  0
   -7.0610   -2.6680  -16.6620 C   0  0  0  0  0  0  0  0  0  0  0  0
  1  4  2  0
  3  1  1  0
  3  7  1  0
  4 18  1  0
  5  4  1  0
  6  2  1  0
  7  6  1  0
  7 19  2  0
  8 12  1  0
  9 13  1  0
 10  8  1  0
 11 19  1  0
 11 22  1  0
 12 13  2  0
 14 15  1  0
 16 21  1  0
 17 16  1  0
 17 11  2  0
 18 14  1  0
 18  6  2  0
 20  3  1  0
 20 17  1  0
 21  8  2  0
 21 22  1  0
 22  9  2  0
M  END
>  <rank>  (3) 
3

>  <composite_score>  (3) 
0.6554

>  <smiles>  (3) 
COC1=C(C)C2=NC3=C(Cc4c(O)cccc43)SC2C=C1C

$$$$
3pbq_imipenem_iter2_all_filtered_77
     RDKit          3D

 22 25  0  0  0  0  0  0  0  0999 V2000
   -2.4200   -1.1320  -19.6000 C   0  0  0  0  0  0  0  0  0  0  0  0
   -2.5240   -2.8730  -15.5960 Cl  0  0  0  0  0  0  0  0  0  0  0  0
   -3.6060   -1.1560  -18.8880 C   0  0  0  0  0  0  0  0  0  0  0  0
   -1.3310   -1.6240  -18.9090 C   0  0  0  0  0  0  0  0  0  0  0  0
    0.0280   -1.7460  -19.3870 C   0  0  0  0  0  0  0  0  0  0  0  0
   -2.5660   -2.1960  -16.9890 C   0  0  0  0  0  0  0  0  0  0  0  0
   -3.6720   -1.6570  -17.5490 C   0  0  0  0  0  0  0  0  0  0  0  0
   -9.4940   -3.0800  -16.7160 C   0  0  0  0  0  0  0  0  0  0  0  0
   -7.0750   -3.3990  -15.3560 C   0  0  0  0  0  0  0  0  0  0  0  0
  -10.7940   -2.7670  -17.3080 N   0  0  0  0  0  0  0  0  0  0  0  0
   -6.1580   -1.9020  -17.2440 C   0  0  0  0  0  0  0  0  0  0  0  0
   -9.3810   -3.9630  -15.6700 C   0  0  0  0  0  0  0  0  0  0  0  0
   -8.1750   -4.1870  -15.0430 C   0  0  0  0  0  0  0  0  0  0  0  0
   -0.2260   -2.8190  -17.4600 O   0  0  0  0  0  0  0  0  0  0  0  0
    0.7220   -1.9860  -18.0670 C   0  0  0  0  0  0  0  0  0  0  0  0
   -8.1670   -1.6480  -18.2310 N   0  0  0  0  0  0  0  0  0  0  0  0
   -6.8490   -1.2920  -18.2550 C   0  0  0  0  0  0  0  0  0  0  0  0
   -1.4470   -2.1100  -17.6370 C   0  0  0  0  0  0  0  0  0  0  0  0
   -4.8800   -1.5470  -16.8020 C   0  0  0  0  0  0  0  0  0  0  0  0
   -4.9440   -0.6380  -20.0250 Cl  0  0  0  0  0  0  0  0  0  0  0  0
   -8.3340   -2.4980  -17.1910 C   0  0  0  0  0  0  0  0  0  0  0  0
   -7.1290   -2.6100  -16.5350 C   0  0  0  0  0  0  0  0  0  0  0  0
  1  4  2  0
  1  3  1  0
  3  7  2  0
  4 18  1  0
  5  4  1  0
  5 15  1  0
  6  2  1  0
  7  6  1  0
  7 19  1  0
  8 12  1  0
  9 13  2  0
 10  8  1  0
 11 19  1  0
 11 22  2  0
 12 13  1  0
 15 14  1  0
 16 21  1  0
 17 16  2  0
 17 11  1  0
 18 14  1  0
 18  6  2  0
 20  3  1  0
 21  8  2  0
 21 22  1  0
 22  9  1  0
M  END
>  <rank>  (4) 
4

>  <composite_score>  (4) 
0.6517

>  <smiles>  (4) 
NC1=C2N=CC(Cc3c(Cl)cc4c(c3Cl)OCC4)=C2C=CC1

$$$$
3pbq_imipenem_iter2_all_filtered_24
     RDKit          3D

 21 23  0  0  0  0  0  0  0  0999 V2000
   -6.7740   -1.8040  -17.9890 C   0  0  0  0  0  0  0  0  0  0  0  0
   -2.9300   -1.9140  -17.5760 C   0  0  0  0  0  0  0  0  0  0  0  0
   -7.4360   -3.2690  -15.0610 O   0  0  0  0  0  0  0  0  0  0  0  0
   -4.0960   -1.5200  -18.1570 C   0  0  0  0  0  0  0  0  0  0  0  0
    0.6500   -0.9920  -17.8850 C   0  0  0  0  0  0  0  0  0  0  0  0
   -2.9260   -0.2040  -19.8800 C   0  0  0  0  0  0  0  0  0  0  0  0
   -1.7390   -1.1760  -17.9610 C   0  0  0  0  0  0  0  0  0  0  0  0
   -2.5350   -4.3650  -17.2120 C   0  0  0  0  0  0  0  0  0  0  0  0
   -6.9990   -2.8070  -16.0520 C   0  0  0  0  0  0  0  0  0  0  0  0
   -2.6790   -2.8540  -15.1350 C   0  0  0  0  0  0  0  0  0  0  0  0
   -9.1390   -2.2050  -17.3040 C   0  0  0  0  0  0  0  0  0  0  0  0
   -5.4940   -2.5560  -16.3980 N   0  0  0  0  0  0  0  0  0  0  0  0
   -4.1840   -0.7580  -19.3550 C   0  0  0  0  0  0  0  0  0  0  0  0
    0.6120    0.0460  -18.8830 C   0  0  0  0  0  0  0  0  0  0  0  0
   -7.7050   -2.2850  -17.1130 N   0  0  0  0  0  0  0  0  0  0  0  0
   -2.8050   -2.9300  -16.6280 C   0  0  1  0  0  0  0  0  0  0  0  0
   -7.2640   -1.2780  -19.0890 F   0  0  0  0  0  0  0  0  0  0  0  0
   -0.5160   -1.4200  -17.2840 C   0  0  0  0  0  0  0  0  0  0  0  0
   -0.6050    0.3460  -19.4480 C   0  0  0  0  0  0  0  0  0  0  0  0
   -1.7770   -0.3320  -19.1290 C   0  0  0  0  0  0  0  0  0  0  0  0
   -5.4080   -1.9410  -17.5240 C   0  0  0  0  0  0  0  0  0  0  0  0
  1 17  1  0
  1 21  1  0
  1 15  1  0
  2 16  1  0
  4  2  2  0
  4 21  1  0
  5 18  1  0
  6 13  2  0
  6 20  1  0
  7  2  1  0
  7 18  2  0
 16  8  1  6
  9  3  2  0
 11 15  1  0
 12  9  1  0
 13  4  1  0
 14  5  2  0
 15  9  1  0
 16 10  1  0
 19 20  2  0
 19 14  1  0
 20  7  1  0
 21 12  2  0
M  END
>  <rank>  (5) 
5

>  <composite_score>  (5) 
0.6440

>  <smiles>  (5) 
CC(C)c1c(C2=NC(=O)N(C)C2F)ccc2ccccc12

$$$$
