Dec06_3pbq_imipenem_iter2_top05_qed_18
     RDKit          3D

 22 23  0  0  0  0  0  0  0  0999 V2000
   -0.2120   -1.2660  -15.8040 C   0  0  0  0  0  0  0  0  0  0  0  0
   -8.5800   -3.0140  -17.6970 C   0  0  0  0  0  0  0  0  0  0  0  0
   -6.3790   -2.2770  -18.2620 C   0  0  0  0  0  0  0  0  0  0  0  0
   -5.2060   -1.3700  -18.7570 C   0  0  0  0  0  0  0  0  0  0  0  0
   -0.0220    0.6290  -17.4650 C   0  0  0  0  0  0  0  0  0  0  0  0
   -1.7810   -0.2690  -18.7200 C   0  0  0  0  0  0  0  0  0  0  0  0
   -5.2800   -0.2350  -19.7020 C   0  0  0  0  0  0  0  0  0  0  0  0
   -4.0150    0.2850  -19.7630 N   0  0  0  0  0  0  0  0  0  0  0  0
   -7.8490   -1.9410  -18.7600 S   0  0  0  0  0  0  0  0  0  0  0  0
   -7.8710   -4.7890  -16.3180 O   0  0  0  0  0  0  0  0  0  0  0  0
    1.4130    0.6230  -15.5550 C   0  0  0  0  0  0  0  0  0  0  0  0
   -3.2720   -0.4520  -18.8830 N   0  0  0  0  0  0  0  0  0  0  0  0
   -3.9050   -1.4700  -18.2890 C   0  0  0  0  0  0  0  0  0  0  0  0
    0.3590    0.0080  -16.3330 C   0  0  0  0  0  0  0  0  0  0  0  0
   -1.5380    0.7990  -17.7130 C   0  0  0  0  0  0  0  0  0  0  0  0
   -7.6330   -3.7800  -17.0690 C   0  0  0  0  0  0  0  0  0  0  0  0
  -10.6250   -1.9170  -17.8590 N   0  0  0  0  0  0  0  0  0  0  0  0
   -6.2860   -3.3210  -17.3630 C   0  0  0  0  0  0  0  0  0  0  0  0
   -9.9400   -3.1080  -17.6910 C   0  0  0  0  0  0  0  0  0  0  0  0
   -3.2880   -2.5890  -17.3730 C   0  0  0  0  0  0  0  0  0  0  0  0
   -6.3410    0.3380  -20.4720 C   0  0  0  0  0  0  0  0  0  0  0  0
  -10.5610   -4.1620  -17.4450 O   0  0  0  0  0  0  0  0  0  0  0  0
  2 19  1  0
  2 16  2  0
  3 18  2  0
  4 13  2  0
  4  3  1  0
  5 14  1  0
  6 15  1  0
  7  4  1  0
  8  7  2  0
  8 12  1  0
  9  3  1  0
  9  2  1  0
 12  6  1  0
 12 13  1  0
 13 20  1  0
 14  1  1  0
 14 11  1  0
 15  5  1  0
 16 10  1  0
 17 19  1  0
 18 16  1  0
 19 22  2  0
 21  7  1  0
M  END
>  <rank>  (1) 
1

>  <composite_score>  (1) 
0.6535

>  <smiles>  (1) 
Cc1nn(CCCC(C)C)c(C)c1-c1cc(O)c(C(N)=O)s1

$$$$
Dec06_3pbq_imipenem_iter2_top05_qed_3
     RDKit          3D

 22 24  0  0  0  0  0  0  0  0999 V2000
    0.1600   -1.0890  -15.8400 C   0  0  0  0  0  0  0  0  0  0  0  0
   -8.6390   -2.2540  -17.7220 N   0  0  0  0  0  0  0  0  0  0  0  0
   -6.4750   -1.7430  -18.1910 C   0  0  0  0  0  0  0  0  0  0  0  0
   -5.3540   -1.1320  -18.7560 C   0  0  0  0  0  0  0  0  0  0  0  0
   -0.3260    1.1030  -16.9810 C   0  0  0  0  0  0  0  0  0  0  0  0
   -1.8680   -0.5640  -18.2090 C   0  0  0  0  0  0  0  0  0  0  0  0
   -5.2250   -0.2170  -19.6720 C   0  0  0  0  0  0  0  0  0  0  0  0
   -3.7380    0.3140  -19.7020 S   0  0  0  0  0  0  0  0  0  0  0  0
   -7.8300   -1.3080  -18.1950 C   0  0  0  0  0  0  0  0  0  0  0  0
   -8.7750   -4.2880  -17.0200 N   0  0  0  0  0  0  0  0  0  0  0  0
    2.0690    0.3240  -16.2640 C   0  0  0  0  0  0  0  0  0  0  0  0
   -3.2120   -0.5770  -18.7510 C   0  0  0  0  0  0  0  0  0  0  0  0
   -4.1340   -1.4450  -18.2770 C   0  0  0  0  0  0  0  0  0  0  0  0
    0.5680    0.5560  -15.9070 N   0  0  0  0  0  0  0  0  0  0  0  0
   -1.7330    0.4110  -17.0370 C   0  0  0  0  0  0  0  0  0  0  0  0
   -7.9880   -3.3760  -17.3840 C   0  0  0  0  0  0  0  0  0  0  0  0
  -10.9140   -1.2650  -17.7080 N   0  0  0  0  0  0  0  0  0  0  0  0
   -6.4050   -3.2450  -17.3520 S   0  0  0  0  0  0  0  0  0  0  0  0
   -9.9720   -2.2720  -17.5210 C   0  0  1  0  0  0  0  0  0  0  0  0
   -3.6550   -2.4380  -17.4140 F   0  0  0  0  0  0  0  0  0  0  0  0
   -6.2150    0.3580  -20.6060 C   0  0  0  0  0  0  0  0  0  0  0  0
  -10.4310   -3.9530  -17.1510 S   0  0  0  0  0  0  0  0  0  0  0  0
  2 19  1  0
  2 16  1  0
  3  4  1  0
  3 18  1  0
  4 13  1  0
  5 14  1  0
  6 15  1  0
  7  4  2  0
  8  7  1  0
  8 12  1  0
  9  3  1  0
  9  2  1  0
 11 14  1  0
 12 13  2  0
 12  6  1  0
 13 20  1  0
 14  1  1  0
 15  5  1  0
 16 18  1  0
 16 10  2  0
 19 17  1  6
 19 22  1  0
 21  7  1  0
 22 10  1  0
M  END
>  <rank>  (2) 
2

>  <composite_score>  (2) 
0.6370

>  <smiles>  (2) 
Cc1sc(CCCN(C)C)c(F)c1C1CN2C(=NSC2N)S1

$$$$
Dec06_3pbq_imipenem_iter2_top05_qed_17
     RDKit          3D

 22 24  0  0  0  0  0  0  0  0999 V2000
    0.1930   -1.1670  -15.6060 C   0  0  0  0  0  0  0  0  0  0  0  0
   -8.6790   -2.4720  -17.8040 N   0  0  0  0  0  0  0  0  0  0  0  0
   -6.4510   -1.9800  -18.1980 C   0  0  0  0  0  0  0  0  0  0  0  0
   -5.3010   -1.2730  -18.6440 C   0  0  0  0  0  0  0  0  0  0  0  0
   -0.2020    0.6400  -17.1880 C   0  0  0  0  0  0  0  0  0  0  0  0
   -1.7730   -0.1850  -18.6040 C   0  0  0  0  0  0  0  0  0  0  0  0
   -5.2970   -0.0830  -19.3900 C   0  0  0  0  0  0  0  0  0  0  0  0
   -4.0090    0.3790  -19.4740 N   0  0  0  0  0  0  0  0  0  0  0  0
   -7.7750   -1.5490  -18.3520 C   0  0  0  0  0  0  0  0  0  0  0  0
   -8.9680   -4.3500  -16.6480 C   0  0  0  0  0  0  0  0  0  0  0  0
    1.6760    0.5480  -15.7810 O   0  0  0  0  0  0  0  0  0  0  0  0
   -3.2490   -0.4480  -18.7620 C   0  0  0  0  0  0  0  0  0  0  0  0
   -4.0210   -1.4410  -18.2700 N   0  0  0  0  0  0  0  0  0  0  0  0
    0.5850    0.1770  -16.2210 C   0  0  0  0  0  0  0  0  0  0  0  0
   -1.6770    0.4950  -17.2400 C   0  0  0  0  0  0  0  0  0  0  0  0
   -8.0620   -3.4970  -17.1810 C   0  0  1  0  0  0  0  0  0  0  0  0
  -11.2440   -1.3530  -17.8040 S   0  0  0  0  0  0  0  0  0  0  0  0
   -6.3460   -3.5340  -17.3270 S   0  0  0  0  0  0  0  0  0  0  0  0
  -10.0400   -2.5950  -17.5130 C   0  0  0  0  0  0  0  0  0  0  0  0
   -3.4360   -2.6370  -17.6610 C   0  0  0  0  0  0  0  0  0  0  0  0
   -6.3690    0.6240  -20.0550 C   0  0  0  0  0  0  0  0  0  0  0  0
  -10.2470   -3.7640  -16.9900 N   0  0  0  0  0  0  0  0  0  0  0  0
  2 19  1  0
  2 16  1  0
  3 18  1  0
  4 13  1  0
  4  3  1  0
  5 14  1  0
  6 15  1  0
  7  4  2  0
  8  7  1  0
  8 12  2  0
  9  3  2  0
  9  2  1  0
 12  6  1  0
 12 13  1  0
 13 20  1  0
 14 11  2  0
 14  1  1  0
 15  5  1  0
 16 10  1  6
 17 19  2  0
 18 16  1  0
 19 22  1  0
 21  7  1  0
 22 10  1  0
M  END
>  <rank>  (3) 
3

>  <composite_score>  (3) 
0.5502

>  <smiles>  (3) 
CC(=O)CCCc1nc(C)c(C2=CN3C(=S)NCC3S2)n1C

$$$$
Dec06_3pbq_imipenem_iter2_top05_qed_20
     RDKit          3D

 22 23  0  0  0  0  0  0  0  0999 V2000
    0.6560   -1.0050  -15.2040 N   0  0  0  0  0  0  0  0  0  0  0  0
   -8.7530   -2.6600  -17.8180 C   0  0  0  0  0  0  0  0  0  0  0  0
   -6.5990   -1.9810  -18.1060 C   0  0  0  0  0  0  0  0  0  0  0  0
   -5.4160   -1.2200  -18.6390 C   0  0  0  0  0  0  0  0  0  0  0  0
    0.1710    0.2660  -17.0660 C   0  0  0  0  0  0  0  0  0  0  0  0
   -1.5730   -0.6840  -18.9430 S   0  0  0  0  0  0  0  0  0  0  0  0
   -5.2900   -0.1440  -19.5680 C   0  0  0  0  0  0  0  0  0  0  0  0
   -3.9400    0.0890  -19.8560 N   0  0  0  0  0  0  0  0  0  0  0  0
   -7.9110   -1.8940  -18.6340 C   0  0  0  0  0  0  0  0  0  0  0  0
   -8.3110   -4.1330  -15.6660 C   0  0  0  0  0  0  0  0  0  0  0  0
    2.1330    0.4100  -15.9600 O   0  0  0  0  0  0  0  0  0  0  0  0
   -3.2930   -0.6210  -19.0120 C   0  0  0  0  0  0  0  0  0  0  0  0
   -4.0670   -1.4150  -18.2380 N   0  0  0  0  0  0  0  0  0  0  0  0
    0.9830   -0.0160  -16.0160 C   0  0  0  0  0  0  0  0  0  0  0  0
   -1.1990   -0.1540  -17.1330 C   0  0  0  0  0  0  0  0  0  0  0  0
   -7.9220   -3.2370  -16.7800 C   0  0  0  0  0  0  0  0  0  0  0  0
  -10.7480   -1.8940  -18.6140 O   0  0  0  0  0  0  0  0  0  0  0  0
   -6.6030   -2.8250  -16.9960 C   0  0  0  0  0  0  0  0  0  0  0  0
  -10.1400   -2.8320  -17.9870 N   0  0  0  0  0  0  0  0  0  0  0  0
   -3.7330   -2.2750  -17.0950 C   0  0  0  0  0  0  0  0  0  0  0  0
   -6.3250    0.7430  -19.9040 C   0  0  0  0  0  0  0  0  0  0  0  0
  -10.8240   -3.7490  -17.4430 O   0  0  0  0  0  0  0  0  0  0  0  0
  2 16  1  0
  3 18  2  0
  4 13  1  0
  4  3  1  0
  5 14  1  0
  6 15  1  0
  7  4  2  0
  8  7  1  0
  8 12  2  0
  9  3  1  0
  9  2  2  0
 12  6  1  0
 12 13  1  0
 13 20  1  0
 14 11  2  0
 14  1  1  0
 15  5  1  0
 16 10  1  0
 17 19  1  0
 18 16  1  0
 19  2  1  0
 19 22  2  0
 21  7  1  0
M  CHG  2  17  -1  19   1
M  END
>  <rank>  (4) 
4

>  <composite_score>  (4) 
0.5460

>  <smiles>  (4) 
Cc1nc(SCCC(N)=O)n(C)c1C1=CC(C)C([N+](=O)[O-])=C1

$$$$
Dec06_3pbq_imipenem_iter2_top05_qed_2
     RDKit          3D

 22 24  0  0  0  0  0  0  0  0999 V2000
   -0.5780   -0.6050  -15.5490 O   0  0  0  0  0  0  0  0  0  0  0  0
   -8.3520   -2.2590  -17.8980 C   0  0  0  0  0  0  0  0  0  0  0  0
   -6.3090   -1.9320  -18.3070 C   0  0  0  0  0  0  0  0  0  0  0  0
   -5.1350   -1.3360  -18.7220 C   0  0  0  0  0  0  0  0  0  0  0  0
   -0.2370    1.2650  -16.9300 C   0  0  0  0  0  0  0  0  0  0  0  0
   -1.6730   -0.1610  -18.5810 C   0  0  0  0  0  0  0  0  0  0  0  0
   -5.0810   -0.2030  -19.6180 C   0  0  0  0  0  0  0  0  0  0  0  0
   -3.9370    0.1650  -19.6130 N   0  0  0  0  0  0  0  0  0  0  0  0
   -7.4700   -1.3560  -18.5490 N   0  0  0  0  0  0  0  0  0  0  0  0
   -8.4810   -4.2590  -16.8830 N   0  0  0  0  0  0  0  0  0  0  0  0
    1.4920   -0.0380  -16.0670 O   0  0  0  0  0  0  0  0  0  0  0  0
   -3.1410   -0.4860  -18.8300 C   0  0  0  0  0  0  0  0  0  0  0  0
   -3.8310   -1.6110  -18.2990 C   0  0  1  0  0  0  0  0  0  0  0  0
    0.3120    0.1580  -16.1270 N   0  0  0  0  0  0  0  0  0  0  0  0
   -1.6410    0.9290  -17.4370 C   0  0  0  0  0  0  0  0  0  0  0  0
   -7.6230   -3.2690  -17.4100 C   0  0  0  0  0  0  0  0  0  0  0  0
  -10.9180   -1.8560  -17.9070 N   0  0  0  0  0  0  0  0  0  0  0  0
   -6.3190   -3.0870  -17.5800 N   0  0  0  0  0  0  0  0  0  0  0  0
   -9.7550   -2.5880  -17.5210 C   0  0  0  0  0  0  0  0  0  0  0  0
   -3.4390   -2.6630  -17.3550 C   0  0  0  0  0  0  0  0  0  0  0  0
   -6.1490    0.7270  -20.0330 C   0  0  0  0  0  0  0  0  0  0  0  0
   -9.9100   -3.7520  -16.9850 N   0  0  0  0  0  0  0  0  0  0  0  0
  2  9  1  0
  2 19  1  0
  2 16  1  0
  3 18  1  0
  4  3  1  0
  4 13  1  0
  5 14  1  0
  6 15  1  0
  7  8  1  0
  7  4  2  0
  8 12  2  0
  9  3  2  0
 12  6  1  0
 12 13  1  0
 13 20  1  1
 14 11  1  0
 14  1  2  0
 15  5  1  0
 16 10  2  0
 17 19  1  0
 18 16  1  0
 19 22  2  0
 21  7  1  0
 22 10  1  0
M  CHG  2  11  -1  14   1
M  END
>  <rank>  (5) 
5

>  <composite_score>  (5) 
0.5377

>  <smiles>  (5) 
CC1=C(C2=NC3C(N)=NN=C3N2)C(C)C(CCC[N+](=O)[O-])=N1

$$$$
Dec06_3pbq_imipenem_iter2_top05_qed_10
     RDKit          3D

 22 24  0  0  0  0  0  0  0  0999 V2000
    0.1730   -0.9700  -16.0370 C   0  0  0  0  0  0  0  0  0  0  0  0
   -8.5830   -2.3320  -17.6610 N   0  0  0  0  0  0  0  0  0  0  0  0
   -6.3690   -1.8750  -18.0740 C   0  0  0  0  0  0  0  0  0  0  0  0
   -5.1990   -1.1580  -18.5720 C   0  0  0  0  0  0  0  0  0  0  0  0
   -0.4580    1.2630  -17.0620 C   0  0  0  0  0  0  0  0  0  0  0  0
   -1.8110   -0.4560  -18.3610 O   0  0  0  0  0  0  0  0  0  0  0  0
   -5.0510   -0.0560  -19.2930 C   0  0  0  0  0  0  0  0  0  0  0  0
   -3.8350    0.2600  -19.5020 N   0  0  0  0  0  0  0  0  0  0  0  0
   -7.6340   -1.4650  -18.2340 C   0  0  0  0  0  0  0  0  0  0  0  0
   -8.9500   -4.2700  -16.6270 C   0  0  0  0  0  0  0  0  0  0  0  0
    1.6980    0.6900  -16.3180 C   0  0  0  0  0  0  0  0  0  0  0  0
   -3.0470   -0.6660  -18.9140 C   0  0  0  0  0  0  0  0  0  0  0  0
   -3.8830   -1.5130  -18.4210 C   0  0  2  0  0  0  0  0  0  0  0  0
    0.2950    0.4540  -16.1580 N   0  0  0  0  0  0  0  0  0  0  0  0
   -1.7560    0.7290  -17.4870 C   0  0  0  0  0  0  0  0  0  0  0  0
   -7.9500   -3.4380  -17.1740 C   0  0  2  0  0  0  0  0  0  0  0  0
  -10.7920   -1.5970  -17.7230 O   0  0  0  0  0  0  0  0  0  0  0  0
   -6.4630   -3.3360  -17.3200 S   0  0  0  0  0  0  0  0  0  0  0  0
   -9.9630   -2.5240  -17.3930 C   0  0  0  0  0  0  0  0  0  0  0  0
   -3.2920   -2.8250  -17.8280 C   0  0  0  0  0  0  0  0  0  0  0  0
   -6.0260    0.7410  -19.5820 F   0  0  0  0  0  0  0  0  0  0  0  0
  -10.1120   -3.7390  -16.8250 N   0  0  0  0  0  0  0  0  0  0  0  0
  2 19  1  0
  2 16  1  0
  3 18  1  0
  4 13  1  0
  4  3  1  0
  5 14  1  0
  6 15  1  0
  7  4  2  0
  8  7  1  0
  8 12  2  0
  9  3  2  0
  9  2  1  0
 11 14  1  0
 12 13  1  0
 12  6  1  0
 13 20  1  6
 14  1  1  0
 15  5  1  0
 16 10  1  0
 17 19  2  0
 16 18  1  1
 19 22  1  0
 21  7  1  0
 22 10  2  0
M  END
>  <rank>  (6) 
6

>  <composite_score>  (6) 
0.5243

>  <smiles>  (6) 
CC1C(OCCN(C)C)=NC(F)=C1C1=CN2C(=O)N=CC2S1

$$$$
Dec06_3pbq_imipenem_iter2_top05_qed_13
     RDKit          3D

 22 23  0  0  0  0  0  0  0  0999 V2000
    0.6270   -1.3380  -15.2530 C   0  0  0  0  0  0  0  0  0  0  0  0
   -8.7070   -2.4520  -17.6870 C   0  0  0  0  0  0  0  0  0  0  0  0
   -6.5670   -1.7820  -18.1140 C   0  0  0  0  0  0  0  0  0  0  0  0
   -5.4310   -1.0440  -18.7120 C   0  0  0  0  0  0  0  0  0  0  0  0
    0.1240    0.4020  -17.0310 C   0  0  0  0  0  0  0  0  0  0  0  0
   -1.5140   -0.1550  -19.1280 S   0  0  0  0  0  0  0  0  0  0  0  0
   -5.3450   -0.0590  -19.7540 C   0  0  0  0  0  0  0  0  0  0  0  0
   -4.0420    0.2990  -20.0610 N   0  0  0  0  0  0  0  0  0  0  0  0
   -7.8520   -1.6630  -18.5200 C   0  0  0  0  0  0  0  0  0  0  0  0
   -8.1970   -4.0060  -15.6950 C   0  0  0  0  0  0  0  0  0  0  0  0
    2.4880    0.0690  -16.2090 C   0  0  0  0  0  0  0  0  0  0  0  0
   -3.2480   -0.3810  -19.2410 C   0  0  0  0  0  0  0  0  0  0  0  0
   -4.1740   -1.2480  -18.3540 C   0  0  2  0  0  0  0  0  0  0  0  0
    0.9790    0.0270  -15.8270 C   0  0  2  0  0  0  0  0  0  0  0  0
   -1.2130   -0.3670  -17.2920 C   0  0  0  0  0  0  0  0  0  0  0  0
   -7.9200   -3.1130  -16.8330 N   0  0  0  0  0  0  0  0  0  0  0  0
  -10.8740   -1.5890  -18.3840 O   0  0  0  0  0  0  0  0  0  0  0  0
   -6.5660   -2.7090  -17.1020 N   0  0  0  0  0  0  0  0  0  0  0  0
  -10.2480   -2.5860  -17.8140 C   0  0  0  0  0  0  0  0  0  0  0  0
   -3.9220   -2.3850  -17.2580 C   0  0  0  0  0  0  0  0  0  0  0  0
   -6.3110    0.7460  -20.1750 C   0  0  0  0  0  0  0  0  0  0  0  0
  -10.8300   -3.5180  -17.3290 O   0  0  0  0  0  0  0  0  0  0  0  0
  2 16  1  0
  3 18  2  0
  4 13  1  0
  4  3  1  0
  5 14  1  0
  6 15  1  0
  7  4  2  0
  8  7  1  0
  8 12  2  0
  9  3  1  0
  9  2  2  0
 14 11  1  6
 12  6  1  0
 12 13  1  0
 13 20  1  6
 14  1  1  0
 15  5  1  0
 16 10  1  0
 17 19  2  0
 18 16  1  0
 19  2  1  0
 19 22  1  0
 21  7  1  0
M  END
>  <rank>  (7) 
7

>  <composite_score>  (7) 
0.5153

>  <smiles>  (7) 
CC1=C(c2cc(C(=O)O)n(C)n2)C(C)C(SCCC(C)C)=N1

$$$$
Dec06_3pbq_imipenem_iter2_top05_qed_6
     RDKit          3D

 22 24  0  0  0  0  0  0  0  0999 V2000
   -0.1010   -1.3110  -15.6960 O   0  0  0  0  0  0  0  0  0  0  0  0
   -8.6100   -2.4070  -17.7080 C   0  0  0  0  0  0  0  0  0  0  0  0
   -6.3590   -1.8580  -18.1450 C   0  0  0  0  0  0  0  0  0  0  0  0
   -5.1440   -1.2010  -18.7710 C   0  0  0  0  0  0  0  0  0  0  0  0
   -0.0550    0.7220  -16.8470 C   0  0  0  0  0  0  0  0  0  0  0  0
   -1.7060   -0.0220  -18.6760 C   0  0  0  0  0  0  0  0  0  0  0  0
   -5.0460   -0.3170  -19.9310 C   0  0  0  0  0  0  0  0  0  0  0  0
   -3.8090    0.1740  -19.9800 N   0  0  0  0  0  0  0  0  0  0  0  0
   -7.6530   -1.3520  -18.2620 C   0  0  0  0  0  0  0  0  0  0  0  0
   -8.8150   -4.6310  -16.9010 C   0  0  0  0  0  0  0  0  0  0  0  0
    2.0110   -0.1200  -16.0510 C   0  0  0  0  0  0  0  0  0  0  0  0
   -3.0880   -0.3490  -18.8770 N   0  0  0  0  0  0  0  0  0  0  0  0
   -3.8510   -1.3470  -18.2880 C   0  0  2  0  0  0  0  0  0  0  0  0
    0.5860   -0.3300  -16.3000 C   0  0  1  0  0  0  0  0  0  0  0  0
   -1.5730    0.9350  -17.3030 C   0  0  0  0  0  0  0  0  0  0  0  0
   -7.8280   -3.5820  -17.3380 C   0  0  0  0  0  0  0  0  0  0  0  0
  -10.8400   -1.5630  -17.7210 C   0  0  0  0  0  0  0  0  0  0  0  0
   -6.4470   -3.3020  -17.5480 C   0  0  0  0  0  0  0  0  0  0  0  0
   -9.8360   -2.6100  -17.4400 N   0  0  0  0  0  0  0  0  0  0  0  0
   -3.2600   -2.4530  -17.3300 C   0  0  0  0  0  0  0  0  0  0  0  0
   -6.1030   -0.0120  -20.9730 C   0  0  0  0  0  0  0  0  0  0  0  0
  -10.0890   -3.9420  -16.9190 C   0  0  0  0  0  0  0  0  0  0  0  0
  2 19  1  0
  2 16  1  0
  3 18  2  0
  4 13  1  0
  4  3  1  0
  5 14  1  0
  6 15  1  0
  7  4  2  0
  8  7  1  0
  8 12  1  0
  9  3  1  0
  9  2  2  0
 12  6  1  0
 12 13  1  0
 13 20  1  6
 14 11  1  1
 14  1  1  0
 15  5  1  0
 16 18  1  0
 16 10  1  0
 17 19  1  0
 19 22  1  0
 21  7  1  0
 22 10  2  0
M  END
>  <rank>  (8) 
8

>  <composite_score>  (8) 
0.5054

>  <smiles>  (8) 
CC1=C(C2=CC3C=CN(C)C3=C2)C(C)N(CCCC(C)O)N1

$$$$
Dec06_3pbq_imipenem_iter2_top05_qed_15
     RDKit          3D

 22 23  0  0  0  0  0  0  0  0999 V2000
   -0.0580   -1.3160  -15.8840 C   0  0  0  0  0  0  0  0  0  0  0  0
   -8.5770   -3.0100  -17.9360 C   0  0  0  0  0  0  0  0  0  0  0  0
   -6.4590   -2.3330  -17.9840 C   0  0  0  0  0  0  0  0  0  0  0  0
   -5.3150   -1.5990  -18.4340 N   0  0  0  0  0  0  0  0  0  0  0  0
   -0.5980    0.8190  -16.6500 C   0  0  0  0  0  0  0  0  0  0  0  0
   -1.7880   -0.4780  -18.2800 C   0  0  0  0  0  0  0  0  0  0  0  0
   -5.4330   -0.4880  -19.3310 C   0  0  1  0  0  0  0  0  0  0  0  0
   -3.8230   -0.0400  -19.8130 S   0  0  0  0  0  0  0  0  0  0  0  0
   -7.7500   -2.0520  -18.3590 C   0  0  0  0  0  0  0  0  0  0  0  0
   -8.3130   -5.3720  -16.6980 S   0  0  0  0  0  0  0  0  0  0  0  0
    1.6110    0.4580  -15.9080 C   0  0  0  0  0  0  0  0  0  0  0  0
   -3.0810   -0.8130  -18.5930 C   0  0  1  0  0  0  0  0  0  0  0  0
   -3.8990   -1.8170  -18.0870 C   0  0  0  0  0  0  0  0  0  0  0  0
    0.3820   -0.0450  -16.1960 N   0  0  0  0  0  0  0  0  0  0  0  0
   -1.3610    0.6580  -17.6420 C   0  0  0  0  0  0  0  0  0  0  0  0
   -7.7870   -3.9490  -17.3220 C   0  0  0  0  0  0  0  0  0  0  0  0
  -10.5030   -1.9820  -18.9090 O   0  0  0  0  0  0  0  0  0  0  0  0
   -6.4430   -3.4920  -17.3730 N   0  0  0  0  0  0  0  0  0  0  0  0
  -10.0520   -3.0580  -18.3470 C   0  0  0  0  0  0  0  0  0  0  0  0
   -3.5520   -2.8750  -17.2910 C   0  0  0  0  0  0  0  0  0  0  0  0
   -6.6900    0.0990  -19.8620 C   0  0  0  0  0  0  0  0  0  0  0  0
  -10.7810   -3.9950  -18.0670 O   0  0  0  0  0  0  0  0  0  0  0  0
  2 16  1  0
  3 18  2  0
  4 13  1  0
  4  3  1  0
  5 14  1  0
  6 15  1  0
  7 21  1  6
  7  4  1  0
  8  7  1  0
  8 12  1  0
  9  3  1  0
  9  2  2  0
 12  6  1  6
 12 13  1  0
 13 20  2  0
 14 11  1  0
 14  1  1  0
 15  5  1  0
 16 10  2  0
 17 19  2  0
 18 16  1  0
 19 22  1  0
 19  2  1  0
M  END
>  <rank>  (9) 
9

>  <composite_score>  (9) 
0.4681

>  <smiles>  (9) 
C=C1C(CCCN(C)C)SC(C)N1C1=NC(=S)C(C(=O)O)=C1

$$$$
Dec06_3pbq_imipenem_iter2_top05_qed_5
     RDKit          3D

 22 23  0  0  0  0  0  0  0  0999 V2000
    0.6640   -1.2100  -15.4380 C   0  0  0  0  0  0  0  0  0  0  0  0
   -8.7720   -2.6250  -17.6740 C   0  0  0  0  0  0  0  0  0  0  0  0
   -6.6450   -1.9890  -17.9710 C   0  0  0  0  0  0  0  0  0  0  0  0
   -5.5060   -1.2600  -18.5050 N   0  0  0  0  0  0  0  0  0  0  0  0
    0.0190    0.6640  -16.9690 C   0  0  0  0  0  0  0  0  0  0  0  0
   -1.5390   -0.5700  -18.8340 S   0  0  0  0  0  0  0  0  0  0  0  0
   -5.3940   -0.2390  -19.4910 C   0  0  0  0  0  0  0  0  0  0  0  0
   -4.1050   -0.0180  -19.7540 N   0  0  0  0  0  0  0  0  0  0  0  0
   -7.8990   -1.9230  -18.4640 N   0  0  0  0  0  0  0  0  0  0  0  0
   -8.4740   -4.2030  -15.7970 C   0  0  0  0  0  0  0  0  0  0  0  0
    2.4160    0.4960  -15.8180 C   0  0  0  0  0  0  0  0  0  0  0  0
   -3.3220   -0.6820  -18.9090 C   0  0  0  0  0  0  0  0  0  0  0  0
   -4.1560   -1.4650  -18.0880 C   0  0  0  0  0  0  0  0  0  0  0  0
    0.9360    0.2560  -15.7390 C   0  0  2  0  0  0  0  0  0  0  0  0
   -1.1320   -0.2860  -17.1600 C   0  0  0  0  0  0  0  0  0  0  0  0
   -7.9870   -3.2630  -16.7880 N   0  0  0  0  0  0  0  0  0  0  0  0
  -10.8510   -1.9510  -18.5360 O   0  0  0  0  0  0  0  0  0  0  0  0
   -6.6970   -2.8650  -16.9380 C   0  0  0  0  0  0  0  0  0  0  0  0
  -10.2370   -2.8380  -17.8940 C   0  0  0  0  0  0  0  0  0  0  0  0
   -3.8710   -2.2140  -17.0190 C   0  0  0  0  0  0  0  0  0  0  0  0
   -6.4910    0.6160  -19.9350 C   0  0  0  0  0  0  0  0  0  0  0  0
  -10.7490   -3.8730  -17.4440 O   0  0  0  0  0  0  0  0  0  0  0  0
  2 16  1  0
  3 18  2  0
  4 13  1  0
  4  3  1  0
  5 14  1  0
  6 15  1  0
  7  4  1  0
  8  7  2  0
  8 12  1  0
  9  3  1  0
  9  2  2  0
 14 11  1  6
 12  6  1  0
 12 13  2  0
 13 20  1  0
 14  1  1  0
 15  5  1  0
 16 10  1  0
 17 19  2  0
 18 16  1  0
 19  2  1  0
 19 22  1  0
 21  7  1  0
M  END
>  <rank>  (10) 
10

>  <composite_score>  (10) 
0.4286

>  <smiles>  (10) 
Cc1nc(SCCC(C)C)c(C)n1-c1cn(C)c(C(=O)O)n1

$$$$
Dec06_3pbq_imipenem_iter2_top05_qed_22
     RDKit          3D

 22 24  0  0  0  0  0  0  0  0999 V2000
   -0.6290   -0.9270  -15.3990 O   0  0  0  0  0  0  0  0  0  0  0  0
   -8.4970   -2.4920  -17.8810 C   0  0  0  0  0  0  0  0  0  0  0  0
   -6.4470   -2.0780  -18.2730 C   0  0  0  0  0  0  0  0  0  0  0  0
   -5.1500   -1.4420  -18.7380 N   0  0  0  0  0  0  0  0  0  0  0  0
   -0.4070    1.0600  -16.7780 C   0  0  0  0  0  0  0  0  0  0  0  0
   -1.6080   -0.3300  -18.5800 C   0  0  0  0  0  0  0  0  0  0  0  0
   -5.0400   -0.4820  -19.6870 C   0  0  0  0  0  0  0  0  0  0  0  0
   -3.7900   -0.0530  -19.6850 N   0  0  0  0  0  0  0  0  0  0  0  0
   -7.6240   -1.5820  -18.5100 C   0  0  0  0  0  0  0  0  0  0  0  0
   -8.6970   -4.3810  -16.7400 C   0  0  0  0  0  0  0  0  0  0  0  0
    1.3740   -0.1160  -15.7960 O   0  0  0  0  0  0  0  0  0  0  0  0
   -3.0430   -0.7950  -18.8230 C   0  0  0  0  0  0  0  0  0  0  0  0
   -3.9180   -1.7410  -18.1920 C   0  0  0  0  0  0  0  0  0  0  0  0
    0.1690   -0.0790  -15.9630 C   0  0  0  0  0  0  0  0  0  0  0  0
   -1.7290    0.7420  -17.5100 C   0  0  0  0  0  0  0  0  0  0  0  0
   -7.8790   -3.5120  -17.3260 N   0  0  0  0  0  0  0  0  0  0  0  0
  -10.9660   -1.6830  -17.7900 C   0  0  0  0  0  0  0  0  0  0  0  0
   -6.4260   -3.0920  -17.6000 C   0  0  0  0  0  0  0  0  0  0  0  0
   -9.9150   -2.6520  -17.5350 C   0  0  0  0  0  0  0  0  0  0  0  0
   -3.4010   -2.7050  -17.1830 C   0  0  0  0  0  0  0  0  0  0  0  0
   -5.8450    0.0080  -20.3460 O   0  0  0  0  0  0  0  0  0  0  0  0
   -9.9400   -3.8830  -16.9350 C   0  0  0  0  0  0  0  0  0  0  0  0
  2 19  1  0
  2 16  1  0
  3 18  2  0
  4  3  1  0
  4 13  1  0
  5 14  1  0
  6 15  1  0
  7  8  1  0
  7  4  1  0
  8 12  2  0
  9  3  1  0
  9  2  2  0
 12  6  1  0
 12 13  1  0
 13 20  1  0
 14 11  2  0
 14  1  1  0
 15  5  1  0
 16 10  1  0
 17 19  1  0
 18 16  1  0
 19 22  2  0
 21  7  2  0
 22 10  1  0
M  END
>  <rank>  (11) 
11

>  <composite_score>  (11) 
0.4144

>  <smiles>  (11) 
CC1=CCn2cc(N3C(=O)N=C(CCCC(=O)O)C3C)cc21

$$$$
Dec06_3pbq_imipenem_iter2_top05_qed_24
     RDKit          3D

 22 23  0  0  0  0  0  0  0  0999 V2000
   -0.1440   -1.2340  -15.8740 C   0  0  0  0  0  0  0  0  0  0  0  0
   -8.4810   -3.1010  -17.8640 C   0  0  0  0  0  0  0  0  0  0  0  0
   -6.4920   -2.2220  -18.2870 C   0  0  0  0  0  0  0  0  0  0  0  0
   -5.3740   -1.3970  -18.6920 C   0  0  0  0  0  0  0  0  0  0  0  0
   -0.2450    0.8670  -17.3070 C   0  0  0  0  0  0  0  0  0  0  0  0
   -1.7810   -0.3080  -18.6950 C   0  0  0  0  0  0  0  0  0  0  0  0
   -5.3680   -0.2920  -19.4940 C   0  0  1  0  0  0  0  0  0  0  0  0
   -4.0470    0.1530  -19.7220 O   0  0  0  0  0  0  0  0  0  0  0  0
   -7.8440   -2.1530  -18.6480 C   0  0  0  0  0  0  0  0  0  0  0  0
   -7.6240   -4.6910  -16.2720 O   0  0  0  0  0  0  0  0  0  0  0  0
    1.1820    0.8940  -15.5450 C   0  0  0  0  0  0  0  0  0  0  0  0
   -3.2130   -0.6140  -18.8200 N   0  0  0  0  0  0  0  0  0  0  0  0
   -3.9350   -1.5640  -18.2240 C   0  0  0  0  0  0  0  0  0  0  0  0
    0.2410    0.0820  -16.2890 N   0  0  0  0  0  0  0  0  0  0  0  0
   -1.4940    0.8190  -17.8220 C   0  0  0  0  0  0  0  0  0  0  0  0
   -7.5150   -3.7830  -17.0610 C   0  0  0  0  0  0  0  0  0  0  0  0
  -10.8490   -2.1930  -18.1940 C   0  0  0  0  0  0  0  0  0  0  0  0
   -6.3520   -3.1440  -17.3000 N   0  0  0  0  0  0  0  0  0  0  0  0
   -9.8660   -3.2540  -17.7500 N   0  0  0  0  0  0  0  0  0  0  0  0
   -3.3620   -2.6570  -17.1930 C   0  0  0  0  0  0  0  0  0  0  0  0
   -6.3630    0.4140  -20.2760 C   0  0  0  0  0  0  0  0  0  0  0  0
  -10.5870   -4.5010  -17.2450 C   0  0  0  0  0  0  0  0  0  0  0  0
  2 19  1  0
  2 16  1  0
  3 18  2  0
  4  3  1  0
  4 13  2  0
  5 14  1  0
  6 15  1  0
  7 21  1  6
  7  4  1  0
  8  7  1  0
  8 12  1  0
  9  3  1  0
  9  2  2  0
 12  6  1  0
 12 13  1  0
 13 20  1  0
 14  1  1  0
 14 11  1  0
 15  5  1  0
 16 10  2  0
 17 19  1  0
 18 16  1  0
 19 22  1  0
M  END
>  <rank>  (12) 
12

>  <composite_score>  (12) 
0.4099

>  <smiles>  (12) 
CC1=C(C2=NC(=O)C(N(C)C)=C2)C(C)ON1CCCN(C)C

$$$$
Dec06_3pbq_imipenem_iter2_top05_qed_7
     RDKit          3D

 22 24  0  0  0  0  0  0  0  0999 V2000
   -0.3330   -0.7960  -15.8080 C   0  0  0  0  0  0  0  0  0  0  0  0
   -8.6750   -2.2290  -17.8310 N   0  0  0  0  0  0  0  0  0  0  0  0
   -6.3500   -2.0550  -18.3120 C   0  0  0  0  0  0  0  0  0  0  0  0
   -5.1630   -1.3300  -18.8320 N   0  0  0  0  0  0  0  0  0  0  0  0
   -0.1310    1.3810  -17.0410 C   0  0  0  0  0  0  0  0  0  0  0  0
   -1.5080   -0.1420  -18.6170 S   0  0  0  0  0  0  0  0  0  0  0  0
   -5.0690   -0.5600  -19.8380 C   0  0  0  0  0  0  0  0  0  0  0  0
   -3.7870   -0.0940  -19.9250 N   0  0  0  0  0  0  0  0  0  0  0  0
   -7.6280   -1.4220  -18.2460 C   0  0  0  0  0  0  0  0  0  0  0  0
   -8.9660   -4.3950  -17.1550 C   0  0  0  0  0  0  0  0  0  0  0  0
    1.9680   -0.0060  -16.5050 C   0  0  0  0  0  0  0  0  0  0  0  0
   -3.0830   -0.6410  -18.8440 C   0  0  0  0  0  0  0  0  0  0  0  0
   -3.8860   -1.4310  -18.2340 C   0  0  0  0  0  0  0  0  0  0  0  0
    0.5380    0.1770  -16.4730 N   0  0  0  0  0  0  0  0  0  0  0  0
   -1.5800    0.9920  -17.4320 C   0  0  0  0  0  0  0  0  0  0  0  0
   -8.0210   -3.4620  -17.4870 N   0  0  0  0  0  0  0  0  0  0  0  0
  -10.8010   -1.4410  -17.9930 C   0  0  0  0  0  0  0  0  0  0  0  0
   -6.6400   -3.3690  -17.8000 C   0  0  0  0  0  0  0  0  0  0  0  0
   -9.9380   -2.4500  -17.6610 C   0  0  0  0  0  0  0  0  0  0  0  0
   -3.4480   -2.2910  -17.1210 C   0  0  0  0  0  0  0  0  0  0  0  0
   -6.1330   -0.1910  -20.8330 C   0  0  0  0  0  0  0  0  0  0  0  0
  -10.1740   -3.8190  -17.2180 C   0  0  0  0  0  0  0  0  0  0  0  0
  2 19  1  0
  2 16  1  0
  3  9  1  0
  3 18  2  0
  4  3  1  0
  4 13  1  0
  5 14  1  0
  6 15  1  0
  7  4  1  0
  8  7  2  0
  8 12  1  0
  9  2  1  0
 11 14  1  0
 12  6  1  0
 12 13  2  0
 13 20  1  0
 14  1  1  0
 15  5  1  0
 16 10  1  0
 17 19  1  0
 18 16  1  0
 19 22  2  0
 21  7  1  0
 22 10  1  0
M  END
>  <rank>  (13) 
13

>  <composite_score>  (13) 
0.4086

>  <smiles>  (13) 
CC1=CCN2C=C(n3c(C)nc(SCCN(C)C)c3C)CN12

$$$$
Dec06_3pbq_imipenem_iter2_top05_qed_21
     RDKit          3D

 22 23  0  0  0  0  0  0  0  0999 V2000
   -0.0780   -1.5370  -15.6680 C   0  0  0  0  0  0  0  0  0  0  0  0
   -8.6820   -3.1490  -18.0050 C   0  0  0  0  0  0  0  0  0  0  0  0
   -6.5410   -2.4310  -18.2440 C   0  0  0  0  0  0  0  0  0  0  0  0
   -5.3210   -1.6700  -18.6410 C   0  0  0  0  0  0  0  0  0  0  0  0
   -0.1710    0.9530  -16.7720 C   0  0  0  0  0  0  0  0  0  0  0  0
   -1.7120   -0.2800  -18.4020 C   0  0  0  0  0  0  0  0  0  0  0  0
   -5.2330   -0.7680  -19.6690 C   0  0  0  0  0  0  0  0  0  0  0  0
   -4.0010   -0.1940  -19.7040 N   0  0  0  0  0  0  0  0  0  0  0  0
   -7.8200   -2.1770  -18.5430 C   0  0  0  0  0  0  0  0  0  0  0  0
   -8.0480   -5.3020  -16.7060 C   0  0  0  0  0  0  0  0  0  0  0  0
    1.6540    0.2230  -15.4620 C   0  0  0  0  0  0  0  0  0  0  0  0
   -3.1300   -0.7460  -18.7320 C   0  0  0  0  0  0  0  0  0  0  0  0
   -3.9820   -1.7520  -18.1580 C   0  0  2  0  0  0  0  0  0  0  0  0
    0.4160   -0.2050  -16.0870 N   0  0  0  0  0  0  0  0  0  0  0  0
   -1.5430    0.9600  -17.4670 C   0  0  0  0  0  0  0  0  0  0  0  0
   -7.8420   -3.9410  -17.3210 C   0  0  1  0  0  0  0  0  0  0  0  0
  -10.6030   -1.9970  -18.8060 O   0  0  0  0  0  0  0  0  0  0  0  0
   -6.4960   -3.5350  -17.4050 N   0  0  0  0  0  0  0  0  0  0  0  0
  -10.0890   -3.0330  -18.2730 C   0  0  0  0  0  0  0  0  0  0  0  0
   -3.4330   -2.8890  -17.2550 C   0  0  0  0  0  0  0  0  0  0  0  0
   -6.3320   -0.4100  -20.6420 C   0  0  0  0  0  0  0  0  0  0  0  0
  -10.8270   -4.1390  -17.9660 N   0  0  0  0  0  0  0  0  0  0  0  0
  2 16  1  0
  3 18  2  0
  4  3  1  0
  4 13  1  0
  5 14  1  0
  6 15  1  0
  7  4  2  0
  8  7  1  0
  8 12  2  0
  9  3  1  0
  9  2  2  0
 12  6  1  0
 12 13  1  0
 13 20  1  6
 14  1  1  0
 14 11  1  0
 15  5  1  0
 16 10  1  6
 17 19  2  0
 18 16  1  0
 19  2  1  0
 19 22  1  0
 21  7  1  0
M  END
>  <rank>  (14) 
14

>  <composite_score>  (14) 
0.3855

>  <smiles>  (14) 
CC1=C(C2=NC(C)C(C(N)=O)=C2)C(C)C(CCCN(C)C)=N1

$$$$
Dec06_3pbq_imipenem_iter2_top05_qed_23
     RDKit          3D

 22 24  0  0  0  0  0  0  0  0999 V2000
    0.1690   -0.9210  -15.7500 C   0  0  0  0  0  0  0  0  0  0  0  0
   -8.6410   -2.3200  -17.7290 N   0  0  0  0  0  0  0  0  0  0  0  0
   -6.3210   -1.9260  -18.0750 C   0  0  0  0  0  0  0  0  0  0  0  0
   -5.1980   -1.1480  -18.5530 C   0  0  0  0  0  0  0  0  0  0  0  0
   -0.3100    1.0890  -17.0000 C   0  0  0  0  0  0  0  0  0  0  0  0
   -1.6000   -0.6100  -18.5540 C   0  0  0  0  0  0  0  0  0  0  0  0
   -5.0870    0.0330  -19.4030 C   0  0  0  0  0  0  0  0  0  0  0  0
   -3.8100    0.3160  -19.5760 N   0  0  0  0  0  0  0  0  0  0  0  0
   -7.6990   -1.3770  -18.1070 C   0  0  0  0  0  0  0  0  0  0  0  0
   -8.8740   -4.3840  -16.9080 C   0  0  0  0  0  0  0  0  0  0  0  0
    1.9880    0.7860  -16.2570 C   0  0  0  0  0  0  0  0  0  0  0  0
   -3.1110   -0.4840  -18.8730 C   0  0  1  0  0  0  0  0  0  0  0  0
   -3.8810   -1.4770  -18.3930 N   0  0  0  0  0  0  0  0  0  0  0  0
    0.4850    0.4670  -15.9430 N   0  0  0  0  0  0  0  0  0  0  0  0
   -1.6120    0.3180  -17.2750 C   0  0  0  0  0  0  0  0  0  0  0  0
   -7.9600   -3.4220  -17.3560 C   0  0  0  0  0  0  0  0  0  0  0  0
  -10.9050   -1.6060  -17.6360 O   0  0  0  0  0  0  0  0  0  0  0  0
   -6.5290   -3.1830  -17.5280 C   0  0  0  0  0  0  0  0  0  0  0  0
   -9.9890   -2.5220  -17.4560 C   0  0  0  0  0  0  0  0  0  0  0  0
   -3.3550   -2.6940  -17.7640 C   0  0  0  0  0  0  0  0  0  0  0  0
   -6.1990    0.7940  -19.8150 C   0  0  0  0  0  0  0  0  0  0  0  0
  -10.1970   -3.8010  -16.9780 N   0  0  0  0  0  0  0  0  0  0  0  0
  2 19  1  0
  2 16  1  0
  3 18  1  0
  4 13  1  0
  4  3  1  0
  5 14  1  0
  6 15  1  0
  7  4  2  0
  8  7  1  0
  8 12  1  0
  9  3  2  0
  9  2  1  0
 11 14  1  0
 12  6  1  6
 12 13  1  0
 13 20  1  0
 14  1  1  0
 15  5  1  0
 16 10  1  0
 17 19  2  0
 18 16  2  0
 19 22  1  0
 21  7  1  0
 22 10  2  0
M  END
>  <rank>  (15) 
15

>  <composite_score>  (15) 
0.3830

>  <smiles>  (15) 
CC1=C(c2cc3n(c2)C(=O)N=C3)N(C)C(CCCN(C)C)N1

$$$$
Dec06_3pbq_imipenem_iter2_top05_qed_0
     RDKit          3D

 22 24  0  0  0  0  0  0  0  0999 V2000
   -0.4340   -1.1630  -15.8740 C   0  0  0  0  0  0  0  0  0  0  0  0
   -8.7140   -2.3570  -17.9680 N   0  0  0  0  0  0  0  0  0  0  0  0
   -6.4920   -1.9120  -18.3630 C   0  0  0  0  0  0  0  0  0  0  0  0
   -5.2830   -1.3240  -18.8000 N   0  0  0  0  0  0  0  0  0  0  0  0
   -0.1800    1.2030  -16.8830 C   0  0  0  0  0  0  0  0  0  0  0  0
   -1.4930   -0.2100  -18.5520 S   0  0  0  0  0  0  0  0  0  0  0  0
   -5.0930   -0.4520  -19.8750 C   0  0  0  0  0  0  0  0  0  0  0  0
   -3.8400   -0.0020  -19.9520 N   0  0  0  0  0  0  0  0  0  0  0  0
   -7.8310   -1.3520  -18.4370 C   0  0  0  0  0  0  0  0  0  0  0  0
   -9.0600   -4.3150  -17.1280 N   0  0  0  0  0  0  0  0  0  0  0  0
    1.7550   -0.3470  -16.4870 C   0  0  0  0  0  0  0  0  0  0  0  0
   -3.2350   -0.6450  -18.9600 C   0  0  0  0  0  0  0  0  0  0  0  0
   -4.0690   -1.5260  -18.2280 C   0  0  0  0  0  0  0  0  0  0  0  0
    0.3810    0.0960  -15.9830 N   0  0  0  0  0  0  0  0  0  0  0  0
   -1.6430    0.9880  -17.2850 C   0  0  0  0  0  0  0  0  0  0  0  0
   -8.1680   -3.4840  -17.6320 N   0  0  0  0  0  0  0  0  0  0  0  0
  -11.0530   -1.5270  -18.0860 C   0  0  0  0  0  0  0  0  0  0  0  0
   -6.7600   -3.3050  -17.8520 C   0  0  0  0  0  0  0  0  0  0  0  0
   -9.9360   -2.5240  -17.7390 C   0  0  0  0  0  0  0  0  0  0  0  0
   -3.6460   -2.4800  -17.1150 C   0  0  0  0  0  0  0  0  0  0  0  0
   -6.1040   -0.2130  -20.9490 C   0  0  0  0  0  0  0  0  0  0  0  0
  -10.2800   -3.7160  -17.1510 N   0  0  0  0  0  0  0  0  0  0  0  0
  2 19  1  0
  2 16  1  0
  3 18  2  0
  4  3  1  0
  4 13  1  0
  5 14  1  0
  6 15  1  0
  7  4  1  0
  8  7  2  0
  8 12  1  0
  9  3  1  0
  9  2  1  0
 11 14  1  0
 12  6  1  0
 12 13  2  0
 13 20  1  0
 14  1  1  0
 15  5  1  0
 16 10  1  0
 17 19  1  0
 18 16  1  0
 19 22  2  0
 21  7  1  0
 22 10  1  0
M  END
>  <rank>  (16) 
16

>  <composite_score>  (16) 
0.3799

>  <smiles>  (16) 
CC1=NNN2C=C(n3c(C)nc(SCCN(C)C)c3C)CN12

$$$$
Dec06_3pbq_imipenem_iter2_top05_qed_11
     RDKit          3D

 22 23  0  0  0  0  0  0  0  0999 V2000
   -0.0890   -1.3360  -15.8660 C   0  0  0  0  0  0  0  0  0  0  0  0
   -8.4440   -3.1350  -17.7870 N   0  0  0  0  0  0  0  0  0  0  0  0
   -6.3320   -2.5250  -18.2070 C   0  0  0  0  0  0  0  0  0  0  0  0
   -5.2770   -1.5200  -18.5870 C   0  0  0  0  0  0  0  0  0  0  0  0
   -0.4030    0.8500  -17.3500 C   0  0  0  0  0  0  0  0  0  0  0  0
   -1.9870   -0.3080  -18.7680 C   0  0  0  0  0  0  0  0  0  0  0  0
   -5.3460   -0.3170  -19.4570 C   0  0  0  0  0  0  0  0  0  0  0  0
   -4.0300   -0.0410  -19.7120 N   0  0  0  0  0  0  0  0  0  0  0  0
   -7.5860   -2.2490  -18.4260 O   0  0  0  0  0  0  0  0  0  0  0  0
   -7.7660   -4.4510  -15.9340 O   0  0  0  0  0  0  0  0  0  0  0  0
    1.4300    0.4350  -16.0420 O   0  0  0  0  0  0  0  0  0  0  0  0
   -3.3410   -0.6030  -18.8780 N   0  0  0  0  0  0  0  0  0  0  0  0
   -4.0070   -1.6000  -18.1800 C   0  0  2  0  0  0  0  0  0  0  0  0
    0.2940   -0.1020  -16.4780 C   0  0  0  0  0  0  0  0  0  0  0  0
   -1.7740    0.8930  -17.8570 C   0  0  0  0  0  0  0  0  0  0  0  0
   -7.6880   -3.7450  -17.0100 C   0  0  0  0  0  0  0  0  0  0  0  0
  -10.4680   -1.7860  -18.1620 C   0  0  0  0  0  0  0  0  0  0  0  0
   -6.2590   -3.5590  -17.3750 C   0  0  0  0  0  0  0  0  0  0  0  0
   -9.7970   -3.1550  -17.9850 C   0  0  2  0  0  0  0  0  0  0  0  0
   -3.3370   -2.6370  -17.3260 C   0  0  0  0  0  0  0  0  0  0  0  0
   -6.6420    0.3030  -19.9040 C   0  0  0  0  0  0  0  0  0  0  0  0
  -10.4830   -4.1040  -16.9600 C   0  0  0  0  0  0  0  0  0  0  0  0
  2 16  1  0
  3 18  1  0
  4  3  2  3
  4 13  1  0
  5 14  2  3
  6 15  1  0
  7 21  1  0
  7  4  1  0
  8  7  1  0
  8 12  1  0
  9  3  1  0
  9  2  1  0
 12  6  1  0
 12 13  1  0
 13 20  1  6
 14 11  1  0
 14  1  1  0
 15  5  1  0
 16 10  2  0
 19 17  1  1
 18 16  1  0
 19  2  1  0
 19 22  1  0
M  END
>  <rank>  (17) 
17

>  <composite_score>  (17) 
0.3763

>  <smiles>  (17) 
CC(O)=CCCN1NC(C)C(=C2CC(=O)N(C(C)C)O2)C1C

$$$$
Dec06_3pbq_imipenem_iter2_top05_qed_25
     RDKit          3D

 22 23  0  0  0  0  0  0  0  0999 V2000
   -0.0130   -1.4800  -15.5990 C   0  0  0  0  0  0  0  0  0  0  0  0
   -8.6420   -2.9020  -17.5800 C   0  0  0  0  0  0  0  0  0  0  0  0
   -6.4450   -2.4360  -18.0150 C   0  0  0  0  0  0  0  0  0  0  0  0
   -5.2400   -1.8240  -18.5460 C   0  0  0  0  0  0  0  0  0  0  0  0
   -0.3070    0.8570  -16.8870 C   0  0  0  0  0  0  0  0  0  0  0  0
   -1.8720   -0.2090  -18.6340 C   0  0  0  0  0  0  0  0  0  0  0  0
   -5.2420   -0.7750  -19.4800 C   0  0  0  0  0  0  0  0  0  0  0  0
   -4.0370   -0.2360  -19.7100 N   0  0  0  0  0  0  0  0  0  0  0  0
   -7.7960   -2.0640  -18.2580 C   0  0  0  0  0  0  0  0  0  0  0  0
   -8.1810   -4.5850  -16.0880 O   0  0  0  0  0  0  0  0  0  0  0  0
    1.5890    0.2380  -15.6310 O   0  0  0  0  0  0  0  0  0  0  0  0
   -3.1700   -0.9090  -18.8970 N   0  0  0  0  0  0  0  0  0  0  0  0
   -3.8100   -2.0000  -18.3750 C   0  0  0  0  0  0  0  0  0  0  0  0
    0.4740   -0.0150  -16.0540 C   0  0  0  0  0  0  0  0  0  0  0  0
   -1.5340    0.6430  -17.4110 C   0  0  0  0  0  0  0  0  0  0  0  0
   -7.8460   -3.7160  -16.8560 C   0  0  0  0  0  0  0  0  0  0  0  0
  -10.5790   -1.9270  -18.2620 O   0  0  0  0  0  0  0  0  0  0  0  0
   -6.4970   -3.4850  -17.2010 N   0  0  0  0  0  0  0  0  0  0  0  0
  -10.0440   -2.8170  -17.6350 C   0  0  0  0  0  0  0  0  0  0  0  0
   -3.0780   -3.1600  -17.7120 C   0  0  0  0  0  0  0  0  0  0  0  0
   -6.5520   -0.4150  -20.1520 C   0  0  0  0  0  0  0  0  0  0  0  0
  -10.7410   -3.7190  -17.0120 O   0  0  0  0  0  0  0  0  0  0  0  0
  2 16  1  0
  3 18  2  0
  4 13  1  0
  4  3  1  0
  5 14  1  0
  6 15  1  0
  7  4  2  0
  8  7  1  0
  8 12  1  0
  9  3  1  0
  9  2  2  0
 12  6  1  0
 12 13  1  0
 13 20  1  0
 14 11  2  0
 14  1  1  0
 15  5  1  0
 16 10  2  0
 17 19  2  0
 18 16  1  0
 19  2  1  0
 19 22  1  0
 21  7  1  0
M  END
>  <rank>  (18) 
18

>  <composite_score>  (18) 
0.3640

>  <smiles>  (18) 
CC(=O)CCCN1NC(C)=C(C2=NC(=O)C(C(=O)O)=C2)C1C

$$$$
Dec06_3pbq_imipenem_iter2_top05_qed_4
     RDKit          3D

 22 23  0  0  0  0  0  0  0  0999 V2000
   -0.3640   -1.4490  -15.9760 N   0  0  0  0  0  0  0  0  0  0  0  0
   -8.3910   -3.1500  -17.8170 N   0  0  0  0  0  0  0  0  0  0  0  0
   -6.3750   -2.2750  -18.1430 C   0  0  0  0  0  0  0  0  0  0  0  0
   -5.4190   -1.4730  -18.6480 N   0  0  0  0  0  0  0  0  0  0  0  0
   -0.2790    0.7230  -17.2180 N   0  0  0  0  0  0  0  0  0  0  0  0
   -1.8110   -0.5060  -18.9310 C   0  0  0  0  0  0  0  0  0  0  0  0
   -5.4060   -0.3350  -19.6470 C   0  0  0  0  0  0  0  0  0  0  0  0
   -4.0250    0.1620  -19.8480 C   0  0  0  0  0  0  0  0  0  0  0  0
   -7.6840   -2.0970  -18.5360 N   0  0  0  0  0  0  0  0  0  0  0  0
   -7.7490   -5.0350  -16.4960 N   0  0  0  0  0  0  0  0  0  0  0  0
    1.2260    0.6120  -15.5400 O   0  0  0  0  0  0  0  0  0  0  0  0
   -3.2130   -0.7680  -19.0610 N   0  0  0  0  0  0  0  0  0  0  0  0
   -4.0130   -1.6010  -18.3260 C   0  0  0  0  0  0  0  0  0  0  0  0
    0.2620   -0.1900  -16.1660 C   0  0  0  0  0  0  0  0  0  0  0  0
   -1.6720    0.8180  -17.7900 C   0  0  0  0  0  0  0  0  0  0  0  0
   -7.5020   -3.9660  -17.1980 C   0  0  0  0  0  0  0  0  0  0  0  0
  -10.3360   -1.8580  -17.8900 C   0  0  0  0  0  0  0  0  0  0  0  0
   -6.2550   -3.3920  -17.2830 N   0  0  0  0  0  0  0  0  0  0  0  0
   -9.7570   -3.2430  -17.9790 C   0  0  2  0  0  0  0  0  0  0  0  0
   -3.6070   -2.5080  -17.3200 C   0  0  0  0  0  0  0  0  0  0  0  0
   -6.6230   -0.0790  -20.4060 C   0  0  0  0  0  0  0  0  0  0  0  0
  -10.4080   -4.1770  -16.9770 C   0  0  0  0  0  0  0  0  0  0  0  0
  2 16  1  0
  3 18  1  0
  4 13  1  0
  4  3  1  0
  5 14  1  0
  6 15  1  0
  7  4  1  0
  8  7  2  0
  8 12  1  0
  9  3  2  0
  9  2  1  0
 12  6  1  0
 12 13  1  0
 13 20  1  0
 14  1  1  0
 14 11  2  0
 15  5  1  0
 16 10  1  0
 18 16  2  0
 19 17  1  1
 19  2  1  0
 19 22  1  0
 21  7  1  0
M  END
>  <rank>  (19) 
19

>  <composite_score>  (19) 
0.3576

>  <smiles>  (19) 
CC1=CN(CCNC(N)=O)C(C)N1c1nc(N)n(C(C)C)n1

$$$$
Dec06_3pbq_imipenem_iter2_top05_qed_16
     RDKit          3D

 22 24  0  0  0  0  0  0  0  0999 V2000
   -0.4560   -0.9950  -15.8710 O   0  0  0  0  0  0  0  0  0  0  0  0
   -8.5150   -2.3870  -17.9470 C   0  0  0  0  0  0  0  0  0  0  0  0
   -6.2850   -1.9970  -18.3170 C   0  0  0  0  0  0  0  0  0  0  0  0
   -5.0980   -1.3690  -18.7190 N   0  0  0  0  0  0  0  0  0  0  0  0
   -0.3800    1.1960  -16.6380 C   0  0  0  0  0  0  0  0  0  0  0  0
   -1.5220   -0.0630  -18.4440 C   0  0  0  0  0  0  0  0  0  0  0  0
   -4.9250   -0.4370  -19.7740 C   0  0  0  0  0  0  0  0  0  0  0  0
   -3.6080    0.0030  -19.7460 N   0  0  0  0  0  0  0  0  0  0  0  0
   -7.6180   -1.3130  -18.4340 C   0  0  0  0  0  0  0  0  0  0  0  0
   -8.6240   -4.4140  -17.0570 N   0  0  0  0  0  0  0  0  0  0  0  0
    1.5900    0.0410  -15.9050 O   0  0  0  0  0  0  0  0  0  0  0  0
   -2.8720   -0.6250  -18.9880 C   0  0  2  0  0  0  0  0  0  0  0  0
   -3.7420   -1.4750  -18.2210 C   0  0  0  0  0  0  0  0  0  0  0  0
    0.3110   -0.0160  -16.1080 C   0  0  0  0  0  0  0  0  0  0  0  0
   -1.5160    0.8150  -17.3360 C   0  0  0  0  0  0  0  0  0  0  0  0
   -7.7630   -3.5280  -17.5400 C   0  0  0  0  0  0  0  0  0  0  0  0
  -11.0720   -1.7820  -17.9450 C   0  0  0  0  0  0  0  0  0  0  0  0
   -6.4100   -3.2790  -17.7490 C   0  0  0  0  0  0  0  0  0  0  0  0
   -9.8370   -2.6170  -17.6690 C   0  0  0  0  0  0  0  0  0  0  0  0
   -3.3980   -2.2380  -17.2810 O   0  0  0  0  0  0  0  0  0  0  0  0
   -5.8400   -0.0420  -20.5240 O   0  0  0  0  0  0  0  0  0  0  0  0
   -9.9070   -3.8730  -17.1130 C   0  0  0  0  0  0  0  0  0  0  0  0
  2 19  2  0
  2 16  1  0
  3 18  1  0
  4  3  1  0
  4 13  1  0
  5 14  1  0
  6 15  2  3
  7  8  1  0
  7  4  1  0
 12  8  1  1
  9  3  2  0
  9  2  1  0
 12  6  1  0
 12 13  1  0
 13 20  2  0
 14 11  2  0
 14  1  1  0
 15  5  1  0
 16 10  1  0
 17 19  1  0
 18 16  2  0
 19 22  1  0
 21  7  2  0
 22 10  2  0
M  END
>  <rank>  (20) 
20

>  <composite_score>  (20) 
0.3342

>  <smiles>  (20) 
CC1=C2C=C(N3C(=O)NC(C=CCC(=O)O)C3=O)C=C2N=C1

$$$$
Dec06_3pbq_imipenem_iter2_top05_qed_19
     RDKit          3D

 22 23  0  0  0  0  0  0  0  0999 V2000
    0.1360   -1.2970  -15.9030 C   0  0  0  0  0  0  0  0  0  0  0  0
   -8.5760   -2.9090  -17.7150 C   0  0  0  0  0  0  0  0  0  0  0  0
   -6.5050   -2.3810  -18.1890 C   0  0  0  0  0  0  0  0  0  0  0  0
   -5.3310   -1.6850  -18.7860 C   0  0  1  0  0  0  0  0  0  0  0  0
   -0.0980    0.9070  -17.2010 C   0  0  0  0  0  0  0  0  0  0  0  0
   -1.9380   -0.3810  -18.4470 C   0  0  0  0  0  0  0  0  0  0  0  0
   -5.2930   -0.6590  -19.6840 C   0  0  2  0  0  0  0  0  0  0  0  0
   -3.7050    0.1190  -20.1030 S   0  0  0  0  0  0  0  0  0  0  0  0
   -7.6640   -2.1150  -18.3440 C   0  0  0  0  0  0  0  0  0  0  0  0
   -8.1400   -5.1080  -16.3760 C   0  0  0  0  0  0  0  0  0  0  0  0
    1.7440    0.6560  -15.7100 C   0  0  0  0  0  0  0  0  0  0  0  0
   -3.2120   -0.8010  -18.6700 N   0  0  0  0  0  0  0  0  0  0  0  0
   -3.9710   -1.7660  -18.1840 C   0  0  2  0  0  0  0  0  0  0  0  0
    0.6650   -0.0570  -16.2750 N   0  0  0  0  0  0  0  0  0  0  0  0
   -1.3990    0.1820  -17.4220 C   0  0  0  0  0  0  0  0  0  0  0  0
   -7.7500   -3.9000  -17.1330 N   0  0  0  0  0  0  0  0  0  0  0  0
  -10.4340   -1.7110  -18.2600 O   0  0  0  0  0  0  0  0  0  0  0  0
   -6.4420   -3.5350  -17.3820 C   0  0  0  0  0  0  0  0  0  0  0  0
  -10.0290   -2.8370  -17.7770 C   0  0  0  0  0  0  0  0  0  0  0  0
   -3.5060   -2.8660  -17.2640 C   0  0  0  0  0  0  0  0  0  0  0  0
   -6.3670    0.2710  -19.9540 C   0  0  0  0  0  0  0  0  0  0  0  0
  -10.9600   -3.8280  -17.4110 O   0  0  0  0  0  0  0  0  0  0  0  0
  2 16  1  0
  3 18  2  0
  4  3  1  1
  4 13  1  0
  5 14  1  0
  6 15  2  3
  7 21  1  1
  7  4  1  0
  8  7  1  0
  8 12  1  0
  9  3  1  0
  9  2  2  0
 12  6  1  0
 12 13  1  0
 13 20  1  6
 14  1  1  0
 14 11  1  0
 15  5  1  0
 16 10  1  0
 17 19  2  0
 18 16  1  0
 19  2  1  0
 19 22  1  0
M  END
>  <rank>  (21) 
21

>  <composite_score>  (21) 
0.3335

>  <smiles>  (21) 
CC1SN(C=CCN(C)C)C(C)C1c1cc(C(=O)O)n(C)c1

$$$$
Dec06_3pbq_imipenem_iter2_top05_qed_14
     RDKit          3D

 22 24  0  0  0  0  0  0  0  0999 V2000
   -0.2150   -1.1100  -15.5830 O   0  0  0  0  0  0  0  0  0  0  0  0
   -8.5380   -2.3800  -17.8350 C   0  0  0  0  0  0  0  0  0  0  0  0
   -6.3890   -1.9600  -18.3040 C   0  0  0  0  0  0  0  0  0  0  0  0
   -5.1690   -1.3880  -18.8670 C   0  0  1  0  0  0  0  0  0  0  0  0
   -0.3380    1.0550  -16.7100 C   0  0  0  0  0  0  0  0  0  0  0  0
   -1.8090    0.2630  -18.6810 C   0  0  0  0  0  0  0  0  0  0  0  0
   -5.1110   -0.4040  -19.8530 C   0  0  1  0  0  0  0  0  0  0  0  0
   -3.8940    0.1730  -19.8980 N   0  0  0  0  0  0  0  0  0  0  0  0
   -7.6870   -1.4930  -18.4070 C   0  0  0  0  0  0  0  0  0  0  0  0
   -8.8590   -4.3560  -16.7520 C   0  0  0  0  0  0  0  0  0  0  0  0
    1.7490   -0.2700  -16.4020 O   0  0  0  0  0  0  0  0  0  0  0  0
   -3.0890   -0.3650  -18.9580 N   0  0  0  0  0  0  0  0  0  0  0  0
   -3.8020   -1.4890  -18.4590 C   0  0  2  0  0  0  0  0  0  0  0  0
    0.4730   -0.1810  -16.1530 C   0  0  0  0  0  0  0  0  0  0  0  0
   -1.6930    0.7130  -17.2390 C   0  0  0  0  0  0  0  0  0  0  0  0
   -7.7990   -3.4790  -17.2830 N   0  0  0  0  0  0  0  0  0  0  0  0
  -11.0890   -1.6220  -17.9050 C   0  0  0  0  0  0  0  0  0  0  0  0
   -6.4320   -3.0420  -17.5420 C   0  0  0  0  0  0  0  0  0  0  0  0
   -9.9360   -2.5300  -17.5110 N   0  0  0  0  0  0  0  0  0  0  0  0
   -3.2650   -2.6600  -17.7600 C   0  0  0  0  0  0  0  0  0  0  0  0
   -6.1960   -0.2480  -20.9380 C   0  0  0  0  0  0  0  0  0  0  0  0
  -10.0250   -3.8280  -16.7980 C   0  0  0  0  0  0  0  0  0  0  0  0
  2 19  1  0
  2 16  1  0
  3 18  2  0
  4 13  1  0
  4  3  1  1
  5 14  1  0
  6 15  1  0
  7 21  1  6
  7  4  1  0
  8  7  1  0
  8 12  1  0
  9  3  1  0
  9  2  2  0
 11 14  2  0
 12  6  1  0
 12 13  1  0
 13 20  1  6
 14  1  1  0
 15  5  1  0
 16 10  1  0
 17 19  1  0
 18 16  1  0
 19 22  1  0
 22 10  2  0
M  END
>  <rank>  (22) 
22

>  <composite_score>  (22) 
0.3294

>  <smiles>  (22) 
CC1NN(CCCC(=O)O)C(C)C1c1cc2n(C)ccn2c1

$$$$
Dec06_3pbq_imipenem_iter2_top05_qed_12
     RDKit          3D

 22 23  0  0  0  0  0  0  0  0999 V2000
   -0.0800   -1.3270  -15.6240 C   0  0  0  0  0  0  0  0  0  0  0  0
   -8.6240   -2.9080  -17.6300 C   0  0  2  0  0  0  0  0  0  0  0  0
   -6.5960   -2.3900  -18.0100 C   0  0  0  0  0  0  0  0  0  0  0  0
   -5.4470   -1.6300  -18.4610 C   0  0  0  0  0  0  0  0  0  0  0  0
   -0.1850    0.6420  -17.1250 C   0  0  0  0  0  0  0  0  0  0  0  0
   -2.0800   -0.2420  -18.5370 C   0  0  0  0  0  0  0  0  0  0  0  0
   -5.4640   -0.6270  -19.4140 C   0  0  0  0  0  0  0  0  0  0  0  0
   -4.2510   -0.1520  -19.6020 N   0  0  0  0  0  0  0  0  0  0  0  0
   -7.8020   -2.1670  -18.4360 N   0  0  0  0  0  0  0  0  0  0  0  0
   -8.1340   -4.6980  -16.0760 O   0  0  0  0  0  0  0  0  0  0  0  0
    1.7160    0.3560  -15.4840 C   0  0  0  0  0  0  0  0  0  0  0  0
   -3.4650   -0.7250  -18.6570 N   0  0  0  0  0  0  0  0  0  0  0  0
   -4.0880   -1.6580  -17.9510 C   0  0  0  0  0  0  0  0  0  0  0  0
    0.4370    0.0160  -16.0290 N   0  0  0  0  0  0  0  0  0  0  0  0
   -1.6660    0.2980  -17.1410 C   0  0  0  0  0  0  0  0  0  0  0  0
   -7.7370   -3.7090  -16.9140 N   0  0  0  0  0  0  0  0  0  0  0  0
  -10.7140   -1.7510  -18.3580 C   0  0  0  0  0  0  0  0  0  0  0  0
   -6.4940   -3.3770  -17.0860 N   0  0  0  0  0  0  0  0  0  0  0  0
  -10.1140   -2.8870  -17.6130 C   0  0  0  0  0  0  0  0  0  0  0  0
   -3.4920   -2.6700  -16.9680 C   0  0  0  0  0  0  0  0  0  0  0  0
   -6.7160   -0.0880  -20.1540 C   0  0  0  0  0  0  0  0  0  0  0  0
  -10.7530   -3.7290  -17.1240 O   0  0  0  0  0  0  0  0  0  0  0  0
  2 19  1  6
  2 16  1  0
  3 18  1  0
  4  3  1  0
  4 13  2  0
  5 14  1  0
  6 15  1  0
  7  4  1  0
  8  7  2  0
  8 12  1  0
  9  3  2  0
  9  2  1  0
 12  6  1  0
 12 13  1  0
 13 20  1  0
 14  1  1  0
 14 11  1  0
 15  5  1  0
 16 10  1  0
 17 19  1  0
 18 16  1  0
 19 22  2  0
 21  7  1  0
M  END
>  <rank>  (23) 
23

>  <composite_score>  (23) 
0.3265

>  <smiles>  (23) 
CC(=O)C1N=C(c2c(C)nn(CCCN(C)C)c2C)NN1O

$$$$
Dec06_3pbq_imipenem_iter2_top05_qed_8
     RDKit          3D

 22 23  0  0  0  0  0  0  0  0999 V2000
   -0.2770   -1.3060  -15.7150 C   0  0  0  0  0  0  0  0  0  0  0  0
   -8.6870   -3.1960  -18.1030 C   0  0  0  0  0  0  0  0  0  0  0  0
   -6.4830   -2.5540  -18.0880 C   0  0  0  0  0  0  0  0  0  0  0  0
   -5.3040   -1.8280  -18.4510 C   0  0  0  0  0  0  0  0  0  0  0  0
   -0.5190    0.8780  -17.1350 C   0  0  0  0  0  0  0  0  0  0  0  0
   -1.8050   -0.6280  -18.3050 C   0  0  0  0  0  0  0  0  0  0  0  0
   -5.1710   -0.7960  -19.3930 C   0  0  0  0  0  0  0  0  0  0  0  0
   -3.8760   -0.2960  -19.4530 N   0  0  0  0  0  0  0  0  0  0  0  0
   -7.7740   -2.2310  -18.5130 C   0  0  0  0  0  0  0  0  0  0  0  0
   -7.8790   -5.4470  -16.7140 C   0  0  0  0  0  0  0  0  0  0  0  0
    1.5930    0.3520  -15.8010 C   0  0  0  0  0  0  0  0  0  0  0  0
   -3.1720   -0.9660  -18.6270 C   0  0  0  0  0  0  0  0  0  0  0  0
   -3.9080   -1.8170  -18.1330 C   0  0  0  0  0  0  0  0  0  0  0  0
    0.1800    0.1260  -16.0350 N   0  0  0  0  0  0  0  0  0  0  0  0
   -1.7780    0.3820  -17.5870 C   0  0  0  0  0  0  0  0  0  0  0  0
   -7.8250   -4.0130  -17.3310 C   0  0  1  0  0  0  0  0  0  0  0  0
  -10.6370   -2.3200  -18.8280 O   0  0  0  0  0  0  0  0  0  0  0  0
   -6.6050   -3.5800  -17.4240 N   0  0  0  0  0  0  0  0  0  0  0  0
  -10.1040   -3.2590  -18.3550 C   0  0  0  0  0  0  0  0  0  0  0  0
   -3.7610   -2.7290  -17.5410 O   0  0  0  0  0  0  0  0  0  0  0  0
   -6.2590   -0.2910  -20.3360 C   0  0  0  0  0  0  0  0  0  0  0  0
  -10.8090   -4.1480  -18.0070 O   0  0  0  0  0  0  0  0  0  0  0  0
  2 16  1  0
  3 18  2  0
  4 13  1  0
  4  3  1  0
  5 14  1  0
  6 15  1  0
  7  4  2  0
  8  7  1  0
  8 12  2  0
  9  2  2  0
  9  3  1  0
 12  6  1  0
 12 13  1  0
 13 20  2  0
 14 11  1  0
 14  1  1  0
 15  5  1  0
 16 10  1  6
 17 19  2  0
 18 16  1  0
 19  2  1  0
 19 22  1  0
 21  7  1  0
M  END
>  <rank>  (24) 
24

>  <composite_score>  (24) 
0.3214

>  <smiles>  (24) 
CC1=C(C2=NC(C)C(C(=O)O)=C2)C(=O)C(CCCN(C)C)=N1

$$$$
Dec06_3pbq_imipenem_iter2_top05_qed_1
     RDKit          3D

 22 23  0  0  0  0  0  0  0  0999 V2000
    0.3810   -1.3370  -15.4190 C   0  0  0  0  0  0  0  0  0  0  0  0
   -8.6580   -3.2650  -18.1140 C   0  0  0  0  0  0  0  0  0  0  0  0
   -6.5410   -2.4220  -18.1750 C   0  0  0  0  0  0  0  0  0  0  0  0
   -5.3090   -1.5960  -18.5170 C   0  0  0  0  0  0  0  0  0  0  0  0
   -0.2390    0.9760  -16.9970 C   0  0  0  0  0  0  0  0  0  0  0  0
   -1.7940   -0.5160  -18.2210 C   0  0  0  0  0  0  0  0  0  0  0  0
   -5.2880   -0.5990  -19.5400 C   0  0  1  0  0  0  0  0  0  0  0  0
   -3.9770   -0.1000  -19.4140 N   0  0  0  0  0  0  0  0  0  0  0  0
   -7.8590   -2.1490  -18.5340 O   0  0  0  0  0  0  0  0  0  0  0  0
   -8.1150   -5.2220  -16.5780 C   0  0  0  0  0  0  0  0  0  0  0  0
    1.5230    0.8830  -15.3890 C   0  0  0  0  0  0  0  0  0  0  0  0
   -3.2540   -0.9990  -18.6610 N   0  0  0  0  0  0  0  0  0  0  0  0
   -3.9850   -1.7160  -17.9460 C   0  0  0  0  0  0  0  0  0  0  0  0
    0.4580    0.0990  -15.9730 N   0  0  0  0  0  0  0  0  0  0  0  0
   -1.7010    0.5390  -17.2070 C   0  0  0  0  0  0  0  0  0  0  0  0
   -7.8570   -3.9320  -17.3260 C   0  0  0  0  0  0  0  0  0  0  0  0
  -10.7220   -2.2040  -19.0870 O   0  0  0  0  0  0  0  0  0  0  0  0
   -6.5840   -3.4600  -17.3760 N   0  0  0  0  0  0  0  0  0  0  0  0
  -10.0680   -3.1810  -18.5610 C   0  0  0  0  0  0  0  0  0  0  0  0
   -3.3610   -2.7440  -16.8850 C   0  0  0  0  0  0  0  0  0  0  0  0
   -6.3060   -0.3690  -20.4740 C   0  0  0  0  0  0  0  0  0  0  0  0
  -10.7670   -4.1190  -18.1530 O   0  0  0  0  0  0  0  0  0  0  0  0
  2 16  2  0
  3 18  2  0
  4  3  1  0
  4 13  2  0
  5 14  1  0
  6 15  1  0
  7 21  1  6
  7  8  1  0
  7  4  1  0
  8 12  1  0
  9  3  1  0
  9  2  1  0
 12  6  1  0
 12 13  1  0
 13 20  1  0
 14  1  1  0
 14 11  1  0
 15  5  1  0
 16 10  1  0
 17 19  2  0
 18 16  1  0
 19 22  1  0
 19  2  1  0
M  END
>  <rank>  (25) 
25

>  <composite_score>  (25) 
0.2922

>  <smiles>  (25) 
CC1=C(c2nc(C)c(C(=O)O)o2)C(C)NN1CCCN(C)C

$$$$
Dec06_3pbq_imipenem_iter2_top05_qed_9
     RDKit          3D

 22 24  0  0  0  0  0  0  0  0999 V2000
   -0.4780   -0.8780  -15.6290 O   0  0  0  0  0  0  0  0  0  0  0  0
   -8.4560   -2.2500  -17.7410 C   0  0  0  0  0  0  0  0  0  0  0  0
   -6.3090   -1.8880  -18.2120 C   0  0  0  0  0  0  0  0  0  0  0  0
   -5.0760   -1.2740  -18.7150 N   0  0  0  0  0  0  0  0  0  0  0  0
   -0.5050    1.1900  -16.7520 C   0  0  0  0  0  0  0  0  0  0  0  0
   -1.6420   -0.1730  -18.5670 C   0  0  0  0  0  0  0  0  0  0  0  0
   -4.9860   -0.2480  -19.6960 C   0  0  0  0  0  0  0  0  0  0  0  0
   -3.7360    0.1110  -19.8230 N   0  0  0  0  0  0  0  0  0  0  0  0
   -7.5540   -1.4100  -18.3850 N   0  0  0  0  0  0  0  0  0  0  0  0
   -8.5630   -4.2510  -16.6550 N   0  0  0  0  0  0  0  0  0  0  0  0
    1.4590   -0.1460  -16.1890 O   0  0  0  0  0  0  0  0  0  0  0  0
   -3.0180   -0.5960  -18.8790 C   0  0  0  0  0  0  0  0  0  0  0  0
   -3.8190   -1.5430  -18.2840 C   0  0  0  0  0  0  0  0  0  0  0  0
    0.2670    0.0060  -16.2090 C   0  0  0  0  0  0  0  0  0  0  0  0
   -1.3900    1.0510  -17.9290 C   0  0  0  0  0  0  0  0  0  0  0  0
   -7.7510   -3.4180  -17.2460 C   0  0  2  0  0  0  0  0  0  0  0  0
  -10.8330   -1.6400  -17.7750 C   0  0  0  0  0  0  0  0  0  0  0  0
   -6.3680   -3.1470  -17.5200 C   0  0  0  0  0  0  0  0  0  0  0  0
   -9.7110   -2.4850  -17.4590 N   0  0  0  0  0  0  0  0  0  0  0  0
   -3.3620   -2.6560  -17.3980 C   0  0  0  0  0  0  0  0  0  0  0  0
   -6.0950    0.3780  -20.4550 C   0  0  0  0  0  0  0  0  0  0  0  0
   -9.7540   -3.7250  -16.8370 C   0  0  0  0  0  0  0  0  0  0  0  0
  2 19  1  0
  2 16  1  0
  3 18  2  0
  4 13  1  0
  4  3  1  0
  5 14  1  0
  6 15  1  0
  7  4  1  0
  8  7  2  0
  8 12  1  0
  9  3  1  0
  9  2  2  0
 12  6  1  0
 12 13  2  0
 13 20  1  0
 14 11  2  0
 14  1  1  0
 15  5  2  3
 16 18  1  1
 16 10  1  0
 17 19  1  0
 19 22  1  0
 21  7  1  0
 22 10  2  0
M  END
>  <rank>  (26) 
26

>  <composite_score>  (26) 
0.2921

>  <smiles>  (26) 
Cc1nc(CC=CC(=O)O)c(C)n1C1=CC2N=CN(C)C2=N1

$$$$
