
     RDKit          3D

 18 20  0  0  0  0  0  0  0  0999 V2000
    9.4550  -34.3720  -32.4560 C   0  0  0  0  0  0  0  0  0  0  0  0
    9.3670  -35.7130  -33.2390 C   0  0  0  0  0  0  0  0  0  0  0  0
    7.1460  -34.8690  -34.3240 C   0  0  0  0  0  0  0  0  0  0  0  0
    5.8370  -34.3480  -34.6720 C   0  0  0  0  0  0  0  0  0  0  0  0
    8.8570  -36.3000  -34.1370 C   0  0  0  0  0  0  0  0  0  0  0  0
    6.0470  -35.9500  -36.6150 C   0  0  0  0  0  0  0  0  0  0  0  0
    7.8760  -33.8010  -33.1230 C   0  0  0  0  0  0  0  0  0  0  0  0
    9.0440  -34.6060  -33.2030 C   0  0  0  0  0  0  0  0  0  0  0  0
    9.6380  -34.7670  -31.7570 C   0  0  0  0  0  0  0  0  0  0  0  0
    7.7720  -35.9430  -34.8390 C   0  0  0  0  0  0  0  0  0  0  0  0
    4.0250  -34.7490  -36.1310 N   0  0  0  0  0  0  0  0  0  0  0  0
    3.1170  -33.7830  -35.4450 C   0  0  0  0  0  0  0  0  0  0  0  0
    2.3460  -34.1270  -36.2630 C   0  0  0  0  0  0  0  0  0  0  0  0
    9.5080  -33.1060  -31.8930 C   0  0  0  0  0  0  0  0  0  0  0  0
    5.2800  -35.0210  -35.8920 C   0  0  0  0  0  0  0  0  0  0  0  0
    7.1810  -36.3970  -36.1130 C   0  0  0  0  0  0  0  0  0  0  0  0
    2.2450  -33.8240  -36.8470 C   0  0  0  0  0  0  0  0  0  0  0  0
    3.7850  -33.9370  -36.9660 C   0  0  0  0  0  0  0  0  0  0  0  0
  1 14  1  0
  1  9  2  0
  2  8  1  0
  3  7  1  0
  4  3  1  0
  5  2  1  0
  6 16  2  0
  6 15  1  0
  8  7  1  0
  8  1  1  0
 10  3  2  0
 10  5  1  0
 11 15  1  0
 11 12  1  0
 13 12  1  0
 15  4  2  0
 16 10  1  0
 17 13  1  0
 18 17  1  0
 18 11  1  0
M  END
$$$$

     RDKit          3D

 28 31  0  0  0  0  0  0  0  0999 V2000
    8.6280  -33.2120  -32.3680 C   0  0  0  0  0  0  0  0  0  0  0  0
   10.4240  -34.0060  -33.1630 O   0  0  0  0  0  0  0  0  0  0  0  0
    9.0590  -35.7130  -33.9960 C   0  0  0  0  0  0  0  0  0  0  0  0
   10.0150  -33.3720  -29.9210 C   0  0  0  0  0  0  0  0  0  0  0  0
    6.3550  -33.1110  -33.3800 N   0  0  0  0  0  0  0  0  0  0  0  0
   10.6470  -32.8020  -28.7090 C   0  0  0  0  0  0  0  0  0  0  0  0
    1.6900  -34.7670  -39.4920 O   0  0  0  0  0  0  0  0  0  0  0  0
    3.7900  -34.7920  -35.4630 C   0  0  0  0  0  0  0  0  0  0  0  0
    4.6340  -34.0000  -34.7120 C   0  0  0  0  0  0  0  0  0  0  0  0
    7.8920  -33.7660  -33.3400 C   0  0  0  0  0  0  0  0  0  0  0  0
    6.2170  -35.3230  -36.2630 C   0  0  0  0  0  0  0  0  0  0  0  0
   10.9480  -33.7350  -30.8250 C   0  0  0  0  0  0  0  0  0  0  0  0
    5.8300  -34.0690  -34.4440 N   0  0  0  0  0  0  0  0  0  0  0  0
    2.6360  -34.0350  -38.9850 C   0  0  0  0  0  0  0  0  0  0  0  0
   12.2660  -33.8020  -30.8330 C   0  0  0  0  0  0  0  0  0  0  0  0
   10.9120  -35.9710  -33.3080 C   0  0  0  0  0  0  0  0  0  0  0  0
    3.2400  -34.7160  -37.8850 C   0  0  0  0  0  0  0  0  0  0  0  0
   10.2280  -34.3590  -32.2830 C   0  0  0  0  0  0  0  0  0  0  0  0
    9.9680  -34.8500  -33.3610 C   0  0  0  0  0  0  0  0  0  0  0  0
    7.7470  -34.7810  -34.1470 C   0  0  0  0  0  0  0  0  0  0  0  0
   12.4820  -32.0460  -27.5960 N   0  0  0  0  0  0  0  0  0  0  0  0
   12.0300  -32.7210  -28.6630 C   0  0  0  0  0  0  0  0  0  0  0  0
    2.9450  -33.0200  -39.4480 O   0  0  0  0  0  0  0  0  0  0  0  0
    3.0220  -35.0400  -36.5000 C   0  0  0  0  0  0  0  0  0  0  0  0
    4.7350  -34.5910  -38.0720 C   0  0  0  0  0  0  0  0  0  0  0  0
   12.8470  -33.2450  -29.5660 C   0  0  0  0  0  0  0  0  0  0  0  0
    6.7200  -34.8750  -34.9300 C   0  0  0  0  0  0  0  0  0  0  0  0
    5.5740  -34.7600  -37.0950 C   0  0  0  0  0  0  0  0  0  0  0  0
  2 18  1  0
  3 19  1  0
  4  6  2  0
  5 10  1  0
  6 22  1  0
  7 14  2  0
  8  9  1  0
 10  1  1  0
 12  4  1  0
 13  9  1  0
 13  5  1  0
 15 12  2  0
 15 26  1  0
 17 14  1  0
 17 24  1  0
 18 12  1  0
 19 16  1  0
 19  2  1  0
 19 18  1  0
 20  3  1  0
 20 10  2  0
 22 21  1  0
 23 14  1  0
 24  8  1  0
 25 17  1  0
 25 28  2  0
 26 22  2  0
 27 11  1  0
 27 13  1  0
 27 20  1  0
 28 11  2  0
M  END
$$$$

     RDKit          3D

 27 31  0  0  0  0  0  0  0  0999 V2000
    7.7990  -32.7900  -32.3840 C   0  0  1  0  0  0  0  0  0  0  0  0
    7.2690  -33.2570  -33.1480 C   0  0  0  0  0  0  0  0  0  0  0  0
    9.2930  -35.3380  -34.2260 C   0  0  2  0  0  0  0  0  0  0  0  0
    9.8600  -33.4610  -32.1900 C   0  0  0  0  0  0  0  0  0  0  0  0
    6.7630  -34.7810  -35.7670 O   0  0  0  0  0  0  0  0  0  0  0  0
    7.7840  -34.4190  -33.6930 C   0  0  0  0  0  0  0  0  0  0  0  0
    7.2830  -34.4820  -33.7410 C   0  0  1  0  0  0  0  0  0  0  0  0
    9.6320  -32.9950  -31.0530 C   0  0  0  0  0  0  0  0  0  0  0  0
    8.6800  -33.8390  -32.8700 C   0  0  2  0  0  0  0  0  0  0  0  0
   12.0350  -33.5980  -31.6160 C   0  0  0  0  0  0  0  0  0  0  0  0
   11.0790  -33.4410  -32.4940 C   0  0  0  0  0  0  0  0  0  0  0  0
   11.8050  -33.3940  -30.4280 C   0  0  0  0  0  0  0  0  0  0  0  0
    7.2730  -35.6140  -34.9380 C   0  0  2  0  0  0  0  0  0  0  0  0
    7.7150  -32.1870  -31.4250 C   0  0  0  0  0  0  0  0  0  0  0  0
    6.0740  -33.8980  -33.7020 C   0  0  0  0  0  0  0  0  0  0  0  0
    7.7780  -31.5980  -30.7110 O   0  0  0  0  0  0  0  0  0  0  0  0
    7.0250  -34.6290  -34.8950 C   0  0  0  0  0  0  0  0  0  0  0  0
    4.3960  -32.1920  -32.7420 C   0  0  0  0  0  0  0  0  0  0  0  0
    4.2670  -33.2200  -33.4700 C   0  0  0  0  0  0  0  0  0  0  0  0
    4.8550  -33.7810  -33.8780 N   0  0  0  0  0  0  0  0  0  0  0  0
   10.0300  -36.0460  -33.3420 F   0  0  0  0  0  0  0  0  0  0  0  0
    8.4750  -36.5580  -34.9370 C   0  0  0  0  0  0  0  0  0  0  0  0
    5.0910  -30.8590  -31.3710 O   0  0  0  0  0  0  0  0  0  0  0  0
   10.5360  -33.1550  -30.2430 C   0  0  0  0  0  0  0  0  0  0  0  0
   10.1620  -34.8340  -35.0480 F   0  0  0  0  0  0  0  0  0  0  0  0
    6.8680  -32.2020  -32.1320 C   0  0  2  0  0  0  0  0  0  0  0  0
    5.4970  -31.8470  -32.1570 C   0  0  0  0  0  0  0  0  0  0  0  0
  1  2  1  0
  1 26  1  0
  1 14  1  1
  3 21  1  1
  4  8  1  0
  5 13  1  0
  6  9  1  0
  7 15  1  0
  7  6  1  0
  7  2  1  0
  8 24  1  0
  9  1  1  0
  9  4  1  6
 10 12  1  0
 11  4  1  0
 11 10  1  0
 12 24  1  0
 13 22  1  6
 13 17  1  0
 14 16  2  0
 17  5  1  0
  7 17  1  1
 18 27  2  3
 19 18  1  0
 20 15  1  0
 20 19  2  3
 22  3  1  0
 25  3  1  0
 26 27  1  0
 26 14  1  1
 27 23  1  0
M  END
$$$$

     RDKit          3D

 25 30  0  0  0  0  0  0  0  0999 V2000
    9.4940  -33.4510  -32.5340 C   0  0  0  0  0  0  0  0  0  0  0  0
    8.7720  -34.1480  -33.3520 C   0  0  0  0  0  0  0  0  0  0  0  0
    9.6050  -34.6240  -33.4960 C   0  0  0  0  0  0  0  0  0  0  0  0
    7.3170  -35.0410  -34.6170 C   0  0  0  0  0  0  0  0  0  0  0  0
   11.6030  -33.7690  -31.8550 C   0  0  0  0  0  0  0  0  0  0  0  0
   10.4810  -33.4420  -31.5270 C   0  0  0  0  0  0  0  0  0  0  0  0
    6.3780  -33.1340  -33.1520 C   0  0  0  0  0  0  0  0  0  0  0  0
   11.0110  -35.1460  -33.7500 C   0  0  0  0  0  0  0  0  0  0  0  0
   11.9100  -34.2230  -33.0620 C   0  0  0  0  0  0  0  0  0  0  0  0
    3.8550  -31.4900  -31.3910 C   0  0  0  0  0  0  0  0  0  0  0  0
    5.0690  -31.9860  -31.8590 C   0  0  0  0  0  0  0  0  0  0  0  0
    8.4270  -35.6500  -34.7610 C   0  0  0  0  0  0  0  0  0  0  0  0
    6.3620  -31.6550  -31.4040 C   0  0  0  0  0  0  0  0  0  0  0  0
    2.7590  -31.7720  -32.1960 C   0  0  0  0  0  0  0  0  0  0  0  0
    2.8490  -32.5320  -33.3040 C   0  0  0  0  0  0  0  0  0  0  0  0
   10.1960  -32.8470  -30.4580 O   0  0  0  0  0  0  0  0  0  0  0  0
   12.5540  -33.4370  -31.4390 F   0  0  0  0  0  0  0  0  0  0  0  0
    5.1650  -32.8390  -32.9220 C   0  0  0  0  0  0  0  0  0  0  0  0
    8.3770  -33.1690  -31.9760 O   0  0  0  0  0  0  0  0  0  0  0  0
    1.6500  -31.1770  -31.8430 O   0  0  0  0  0  0  0  0  0  0  0  0
    7.3380  -34.0030  -33.7360 C   0  0  0  0  0  0  0  0  0  0  0  0
    9.5690  -35.5030  -34.5940 C   0  0  0  0  0  0  0  0  0  0  0  0
    7.1740  -32.4270  -32.2420 C   0  0  0  0  0  0  0  0  0  0  0  0
   13.1040  -34.3650  -33.2130 F   0  0  0  0  0  0  0  0  0  0  0  0
    4.0510  -33.1330  -33.6520 C   0  0  0  0  0  0  0  0  0  0  0  0
  1  2  1  0
  1 19  1  0
  1  6  1  0
  3  2  1  0
  4 21  1  0
  5  6  1  0
  5 17  1  0
  6 16  2  0
  7 18  2  0
  7 23  1  0
  8  3  1  0
  8  9  1  0
  9  5  1  0
 11 13  2  0
 11 10  1  0
 12  4  1  0
 12 22  1  0
 14 20  1  0
 14 10  2  0
 15 14  1  0
 18 11  1  0
 21  2  2  0
 21  7  1  0
 22  8  1  0
 22  3  1  0
 23 19  1  0
 23 13  1  0
 24  9  1  0
 25 15  2  0
 25 18  1  0
M  END
$$$$

     RDKit          3D

 17 20  0  0  0  0  0  0  0  0999 V2000
   10.0920  -32.6610  -30.8160 C   0  0  0  0  0  0  0  0  0  0  0  0
    4.8120  -34.1630  -34.5280 C   0  0  0  0  0  0  0  0  0  0  0  0
   10.8040  -33.8890  -31.2820 C   0  0  0  0  0  0  0  0  0  0  0  0
    9.5550  -34.3260  -33.0980 C   0  0  0  0  0  0  0  0  0  0  0  0
    8.7090  -35.6500  -34.8390 C   0  0  0  0  0  0  0  0  0  0  0  0
    3.9820  -32.3220  -33.1430 C   0  0  0  0  0  0  0  0  0  0  0  0
    8.7100  -32.6110  -31.4670 C   0  0  0  0  0  0  0  0  0  0  0  0
    6.3460  -33.1790  -33.2730 N   0  0  0  0  0  0  0  0  0  0  0  0
   10.8350  -34.2330  -32.6820 C   0  0  0  0  0  0  0  0  0  0  0  0
    5.2540  -35.0590  -35.3340 C   0  0  0  0  0  0  0  0  0  0  0  0
    8.3740  -33.3570  -32.4560 C   0  0  0  0  0  0  0  0  0  0  0  0
    5.1270  -33.3220  -33.7210 C   0  0  0  0  0  0  0  0  0  0  0  0
    7.3760  -33.8040  -33.6200 C   0  0  0  0  0  0  0  0  0  0  0  0
    8.7140  -34.8800  -34.1460 C   0  0  0  0  0  0  0  0  0  0  0  0
    7.1910  -34.7550  -34.2770 C   0  0  0  0  0  0  0  0  0  0  0  0
    8.7160  -35.6640  -33.9940 C   0  0  0  0  0  0  0  0  0  0  0  0
    6.6090  -35.3170  -35.2420 C   0  0  0  0  0  0  0  0  0  0  0  0
  2 12  2  0
  3  1  1  0
  4  9  1  0
  4 11  1  0
  5 14  1  0
  5 16  1  0
  7  1  1  0
  9  3  1  0
 10 17  1  0
 10  2  1  0
 11  7  2  0
 12  8  1  0
 12  6  1  0
 13  8  2  0
 13 11  1  0
 14 16  1  0
 14  4  1  0
 15 17  1  0
 15 14  1  0
 15 13  1  0
M  END
$$$$

     RDKit          3D

 23 27  0  0  0  0  0  0  0  0999 V2000
    4.8110  -34.1190  -35.2810 C   0  0  0  0  0  0  0  0  0  0  0  0
   12.6750  -34.0760  -33.3560 C   0  0  0  0  0  0  0  0  0  0  0  0
   12.2770  -34.2190  -30.4050 O   0  0  0  0  0  0  0  0  0  0  0  0
    8.0120  -34.2870  -33.4310 C   0  0  0  0  0  0  0  0  0  0  0  0
   11.6860  -33.1890  -31.2430 C   0  0  0  0  0  0  0  0  0  0  0  0
   11.3420  -34.8130  -33.4790 C   0  0  0  0  0  0  0  0  0  0  0  0
    3.4560  -33.7240  -35.6280 C   0  0  0  0  0  0  0  0  0  0  0  0
    6.9840  -34.5880  -34.3400 C   0  0  0  0  0  0  0  0  0  0  0  0
   10.1860  -33.3630  -31.7050 C   0  0  0  0  0  0  0  0  0  0  0  0
   10.4300  -36.8930  -33.9930 C   0  0  0  0  0  0  0  0  0  0  0  0
    6.9700  -35.6160  -35.2000 N   0  0  0  0  0  0  0  0  0  0  0  0
    6.0440  -35.9250  -36.0300 C   0  0  0  0  0  0  0  0  0  0  0  0
    4.2010  -35.0800  -37.3580 C   0  0  0  0  0  0  0  0  0  0  0  0
   12.6050  -32.9500  -32.4060 C   0  0  0  0  0  0  0  0  0  0  0  0
    5.0510  -35.0960  -36.2790 C   0  0  0  0  0  0  0  0  0  0  0  0
    5.8320  -33.7780  -34.3130 C   0  0  0  0  0  0  0  0  0  0  0  0
   11.2610  -35.8990  -34.2370 C   0  0  0  0  0  0  0  0  0  0  0  0
    3.0730  -34.4280  -36.7600 N   0  0  0  0  0  0  0  0  0  0  0  0
   10.1330  -34.4350  -32.7650 C   0  0  0  0  0  0  0  0  0  0  0  0
    7.6200  -33.1250  -32.7360 C   0  0  0  0  0  0  0  0  0  0  0  0
    9.0670  -35.0500  -33.2380 N   0  0  0  0  0  0  0  0  0  0  0  0
    9.0440  -36.4230  -33.6240 C   0  0  0  0  0  0  0  0  0  0  0  0
    6.0820  -32.5810  -33.1450 S   0  0  0  0  0  0  0  0  0  0  0  0
  1 16  2  0
  2 14  1  0
  4 21  1  0
  4 20  2  0
  5  3  1  0
  6 17  1  0
  6  2  1  0
  6 19  1  0
  7  1  1  0
  8 16  1  0
  8  4  1  0
  9  5  1  0
 10 22  1  0
 11  8  2  0
 12 11  1  0
 13 18  1  0
 13 15  1  0
 14  5  1  0
 15 12  2  0
 15  1  1  0
 16 23  1  0
 17 10  1  0
 18  7  1  0
 19  9  1  0
 21 19  1  0
 22 21  1  0
 23 20  1  0
M  END
$$$$

     RDKit          3D

 25 28  0  0  0  0  0  0  0  0999 V2000
    9.2440  -33.7180  -32.4750 O   0  0  0  0  0  0  0  0  0  0  0  0
   10.4340  -34.2500  -32.4330 C   0  0  0  0  0  0  0  0  0  0  0  0
    3.2000  -31.1010  -30.4220 N   0  0  0  0  0  0  0  0  0  0  0  0
    5.4030  -35.9400  -35.9150 O   0  0  0  0  0  0  0  0  0  0  0  0
    8.2990  -34.2120  -33.3230 C   0  0  0  0  0  0  0  0  0  0  0  0
    6.2360  -35.2210  -35.3910 C   0  0  0  0  0  0  0  0  0  0  0  0
    7.6200  -35.8720  -35.3310 C   0  0  0  0  0  0  0  0  0  0  0  0
   11.1650  -32.0920  -28.9530 C   0  0  0  0  0  0  0  0  0  0  0  0
   11.3030  -31.1740  -27.9660 O   0  0  0  0  0  0  0  0  0  0  0  0
    7.2030  -32.4050  -31.9940 C   0  0  0  0  0  0  0  0  0  0  0  0
    5.8790  -33.4530  -33.7600 C   0  0  0  0  0  0  0  0  0  0  0  0
    6.0500  -31.7900  -31.5390 C   0  0  0  0  0  0  0  0  0  0  0  0
    4.8080  -32.1370  -32.0890 C   0  0  0  0  0  0  0  0  0  0  0  0
   12.2360  -32.2380  -29.8810 C   0  0  0  0  0  0  0  0  0  0  0  0
    7.0810  -33.3110  -33.0560 C   0  0  0  0  0  0  0  0  0  0  0  0
   10.7320  -35.2680  -33.4030 C   0  0  0  0  0  0  0  0  0  0  0  0
    3.8700  -31.5440  -31.2580 C   0  0  0  0  0  0  0  0  0  0  0  0
   10.9580  -33.6720  -31.1450 C   0  0  0  0  0  0  0  0  0  0  0  0
    8.5100  -35.1950  -34.2430 C   0  0  0  0  0  0  0  0  0  0  0  0
   10.0250  -33.7980  -30.1030 C   0  0  0  0  0  0  0  0  0  0  0  0
    4.7560  -32.8950  -33.2510 C   0  0  0  0  0  0  0  0  0  0  0  0
   12.1170  -33.0820  -30.9400 C   0  0  0  0  0  0  0  0  0  0  0  0
    9.8690  -35.7630  -34.2430 C   0  0  0  0  0  0  0  0  0  0  0  0
   10.1310  -32.9100  -29.0200 C   0  0  0  0  0  0  0  0  0  0  0  0
    5.9360  -33.9770  -35.0510 O   0  0  0  0  0  0  0  0  0  0  0  0
  1  2  1  0
  2 18  1  0
  4  6  2  0
  5 15  1  0
  5  1  1  0
  6  7  1  0
  6 25  1  0
  7 19  1  0
  8  9  1  0
 10 12  2  0
 11 21  1  0
 11 15  2  0
 13 12  1  0
 13 17  1  0
 14  8  2  0
 15 10  1  0
 16  2  1  0
 17  3  3  0
 18 22  2  0
 18 20  1  0
 19  5  2  0
 20 24  2  0
 21 13  2  0
 22 14  1  0
 23 19  1  0
 23 16  2  0
 24  8  1  0
 25 11  1  0
M  END
$$$$

     RDKit          3D

 35 43  0  0  0  0  0  0  0  0999 V2000
    8.9630  -34.2520  -33.4140 C   0  0  0  0  0  0  0  0  0  0  0  0
    6.1020  -35.2160  -34.8440 C   0  0  0  0  0  0  0  0  0  0  0  0
   12.4250  -33.2920  -29.6030 C   0  0  0  0  0  0  0  0  0  0  0  0
   10.0800  -39.2180  -33.4290 O   0  0  0  0  0  0  0  0  0  0  0  0
    5.2640  -34.2700  -34.3700 N   0  0  0  0  0  0  0  0  0  0  0  0
   10.0830  -33.9720  -30.8920 C   0  0  0  0  0  0  0  0  0  0  0  0
   10.5630  -33.6200  -32.2110 C   0  0  0  0  0  0  0  0  0  0  0  0
   12.6330  -33.6750  -30.9860 C   0  0  0  0  0  0  0  0  0  0  0  0
    8.3850  -36.2680  -34.4520 C   0  0  0  0  0  0  0  0  0  0  0  0
    3.4040  -32.7190  -30.4740 C   0  0  0  0  0  0  0  0  0  0  0  0
    9.3350  -33.3970  -32.8360 C   0  0  0  0  0  0  0  0  0  0  0  0
   11.2010  -32.9410  -29.1390 C   0  0  0  0  0  0  0  0  0  0  0  0
    7.3420  -35.3440  -34.3690 C   0  0  0  0  0  0  0  0  0  0  0  0
    9.5530  -35.5830  -33.9060 C   0  0  0  0  0  0  0  0  0  0  0  0
   11.8290  -33.3750  -32.0250 C   0  0  0  0  0  0  0  0  0  0  0  0
    4.3770  -31.9880  -31.3630 C   0  0  0  0  0  0  0  0  0  0  0  0
    5.6570  -32.0460  -30.8660 O   0  0  0  0  0  0  0  0  0  0  0  0
    8.5480  -37.7110  -34.4190 O   0  0  0  0  0  0  0  0  0  0  0  0
   10.1180  -32.9800  -29.9460 C   0  0  0  0  0  0  0  0  0  0  0  0
    6.9280  -33.2850  -33.1030 C   0  0  0  0  0  0  0  0  0  0  0  0
   10.9470  -35.0310  -34.3530 C   0  0  0  0  0  0  0  0  0  0  0  0
    9.6790  -38.0290  -33.6690 C   0  0  0  0  0  0  0  0  0  0  0  0
   11.2980  -34.1140  -33.4010 C   0  0  0  0  0  0  0  0  0  0  0  0
   12.5790  -33.8160  -33.1790 C   0  0  0  0  0  0  0  0  0  0  0  0
    5.6440  -36.1600  -35.7470 N   0  0  0  0  0  0  0  0  0  0  0  0
   10.1000  -36.8100  -33.0610 C   0  0  0  0  0  0  0  0  0  0  0  0
    8.7140  -32.2810  -32.3090 O   0  0  0  0  0  0  0  0  0  0  0  0
    3.8330  -30.5930  -31.3970 C   0  0  0  0  0  0  0  0  0  0  0  0
    5.6120  -33.3380  -33.4660 C   0  0  0  0  0  0  0  0  0  0  0  0
    7.4310  -32.3430  -32.2710 C   0  0  0  0  0  0  0  0  0  0  0  0
    4.4220  -32.6000  -32.8040 C   0  0  0  0  0  0  0  0  0  0  0  0
    7.7610  -34.1730  -33.6000 C   0  0  0  0  0  0  0  0  0  0  0  0
    6.6990  -31.3860  -31.4800 C   0  0  0  0  0  0  0  0  0  0  0  0
    3.3890  -32.5620  -33.4430 O   0  0  0  0  0  0  0  0  0  0  0  0
   13.4130  -33.2990  -28.7700 O   0  0  0  0  0  0  0  0  0  0  0  0
  2  5  1  0
  2 13  2  0
  3 12  2  0
  3 35  1  0
  5 29  2  0
  6 19  1  0
  7 15  1  0
  7  6  1  0
  8  3  1  0
  9 18  1  0
  9 13  1  0
  9 14  1  0
 11  1  1  0
 11 27  1  0
 11  7  1  0
 13 32  1  0
 14 21  1  0
 14  1  1  0
 14 26  1  0
 15 24  1  0
 15  8  1  0
 16 17  1  0
 16 10  1  0
 18 22  1  0
 19 12  1  0
 20 30  2  0
 22  4  2  0
 22 26  1  0
 23 21  1  0
 23 24  1  0
 23  7  1  0
 23 15  1  0
 25  2  1  0
 27 30  1  0
 28 16  1  0
 29 20  1  0
 29 31  1  0
 30 33  1  0
 31 16  1  0
 32  1  2  0
 32 20  1  0
 33 17  1  0
 34 31  2  0
M  END
$$$$

     RDKit          3D

 24 27  0  0  0  0  0  0  0  0999 V2000
    6.9850  -34.4500  -33.9560 N   0  0  0  0  0  0  0  0  0  0  0  0
    6.1770  -31.7370  -31.2440 C   0  0  0  0  0  0  0  0  0  0  0  0
   12.0720  -33.0270  -30.7240 C   0  0  0  0  0  0  0  0  0  0  0  0
    9.5620  -35.7830  -33.6020 O   0  0  0  0  0  0  0  0  0  0  0  0
    5.3130  -32.9500  -33.1000 C   0  0  0  0  0  0  0  0  0  0  0  0
    9.3310  -36.1830  -34.9300 C   0  0  0  0  0  0  0  0  0  0  0  0
    6.6850  -35.3410  -37.1830 C   0  0  0  0  0  0  0  0  0  0  0  0
   12.0890  -33.7860  -31.8490 C   0  0  0  0  0  0  0  0  0  0  0  0
    7.1170  -35.0390  -35.0790 C   0  0  0  0  0  0  0  0  0  0  0  0
    5.1110  -32.0190  -32.0920 C   0  0  0  0  0  0  0  0  0  0  0  0
    6.5390  -33.4960  -33.2770 C   0  0  0  0  0  0  0  0  0  0  0  0
    8.2770  -35.6720  -35.5940 C   0  0  0  0  0  0  0  0  0  0  0  0
    7.3700  -32.2850  -31.4140 C   0  0  0  0  0  0  0  0  0  0  0  0
    3.8580  -31.4060  -31.9830 O   0  0  0  0  0  0  0  0  0  0  0  0
    6.1610  -34.9710  -36.0770 C   0  0  0  0  0  0  0  0  0  0  0  0
    7.5150  -33.1400  -32.4280 C   0  0  0  0  0  0  0  0  0  0  0  0
    2.6830  -32.1760  -31.7700 C   0  0  0  0  0  0  0  0  0  0  0  0
   10.8700  -34.2900  -32.2760 C   0  0  0  0  0  0  0  0  0  0  0  0
    8.5040  -32.1920  -30.4740 O   0  0  0  0  0  0  0  0  0  0  0  0
    9.6510  -33.7770  -31.7860 C   0  0  0  0  0  0  0  0  0  0  0  0
    9.6740  -32.8040  -30.8390 C   0  0  0  0  0  0  0  0  0  0  0  0
   10.8010  -35.1300  -33.3330 C   0  0  0  0  0  0  0  0  0  0  0  0
   10.8800  -32.5110  -30.2310 C   0  0  0  0  0  0  0  0  0  0  0  0
    8.0940  -35.5140  -36.8690 C   0  0  0  0  0  0  0  0  0  0  0  0
  1 11  1  0
  3 23  2  0
  4 22  1  0
  5 10  1  0
  6  4  1  0
  7 24  1  0
  7 15  1  0
  8  3  1  0
  9 15  1  0
  9  1  1  0
 10 14  1  0
 10  2  2  0
 11  5  2  0
 11 16  1  0
 12 24  1  0
 12  9  1  0
 12  6  1  0
 13  2  1  0
 13 19  1  0
 14 17  1  0
 16 13  2  0
 18  8  2  0
 18 20  1  0
 20 21  2  0
 21 19  1  0
 21 23  1  0
 22 18  1  0
M  END
$$$$

     RDKit          3D

 16 18  0  0  0  0  0  0  0  0999 V2000
    9.0860  -35.8790  -33.4680 C   0  0  0  0  0  0  0  0  0  0  0  0
    9.5320  -35.2660  -33.0280 C   0  0  0  0  0  0  0  0  0  0  0  0
    9.8670  -33.2800  -33.3600 C   0  0  0  0  0  0  0  0  0  0  0  0
    5.8780  -31.3430  -32.5710 O   0  0  0  0  0  0  0  0  0  0  0  0
    8.5550  -33.7370  -33.2190 C   0  0  0  0  0  0  0  0  0  0  0  0
    7.0170  -32.0540  -32.2810 C   0  0  0  0  0  0  0  0  0  0  0  0
    7.7890  -32.1850  -31.0610 C   0  0  0  0  0  0  0  0  0  0  0  0
    8.7170  -34.7970  -35.4120 F   0  0  0  0  0  0  0  0  0  0  0  0
    5.5870  -34.8830  -35.4220 O   0  0  0  0  0  0  0  0  0  0  0  0
    8.1140  -35.2410  -34.2560 C   0  0  0  0  0  0  0  0  0  0  0  0
    6.2560  -34.3260  -34.8840 C   0  0  0  0  0  0  0  0  0  0  0  0
    7.8890  -34.3890  -32.9400 C   0  0  0  0  0  0  0  0  0  0  0  0
    6.5530  -33.5830  -33.0680 C   0  0  0  0  0  0  0  0  0  0  0  0
    5.9860  -33.7250  -34.0130 C   0  0  0  0  0  0  0  0  0  0  0  0
    6.9370  -35.7680  -34.7530 C   0  0  0  0  0  0  0  0  0  0  0  0
   10.1990  -34.3250  -32.1840 C   0  0  0  0  0  0  0  0  0  0  0  0
  2  1  1  0
  2 16  1  0
  3 16  1  0
  4  6  1  0
  5  3  1  0
  5  2  1  0
  5 12  1  0
  6  7  1  0
 10  8  1  0
 10  1  1  0
 10 12  1  0
 11  9  1  0
 11 15  1  0
 11 14  1  0
 13 12  1  0
 13  6  1  0
 14 13  1  0
 15 10  1  0
M  END
$$$$

     RDKit          3D

 27 30  0  0  0  0  0  0  0  0999 V2000
    3.1960  -32.9430  -32.1300 O   0  0  0  0  0  0  0  0  0  0  0  0
   11.3590  -34.5430  -33.8840 C   0  0  0  0  0  0  0  0  0  0  0  0
   10.6310  -33.0350  -31.0160 C   0  0  0  0  0  0  0  0  0  0  0  0
    7.9130  -32.9280  -32.6770 C   0  0  0  0  0  0  0  0  0  0  0  0
    6.3700  -35.0230  -35.1570 O   0  0  0  0  0  0  0  0  0  0  0  0
    6.5490  -31.6030  -31.8720 C   0  0  0  0  0  0  0  0  0  0  0  0
   11.5860  -34.0080  -30.6550 C   0  0  0  0  0  0  0  0  0  0  0  0
   10.8140  -32.1250  -28.8000 C   0  0  0  0  0  0  0  0  0  0  0  0
   12.2750  -33.9480  -29.5190 C   0  0  0  0  0  0  0  0  0  0  0  0
    5.9330  -32.5700  -32.4220 C   0  0  0  0  0  0  0  0  0  0  0  0
    9.2580  -35.9540  -33.7730 C   0  0  0  0  0  0  0  0  0  0  0  0
   10.3210  -36.6060  -33.9790 C   0  0  0  0  0  0  0  0  0  0  0  0
    9.2430  -34.6530  -33.4100 C   0  0  0  0  0  0  0  0  0  0  0  0
    5.8950  -33.5110  -33.4520 C   0  0  0  0  0  0  0  0  0  0  0  0
    6.4870  -34.2810  -34.1350 C   0  0  0  0  0  0  0  0  0  0  0  0
   11.2780  -35.8110  -34.2200 C   0  0  0  0  0  0  0  0  0  0  0  0
    7.9580  -31.9390  -32.0630 N   0  0  0  0  0  0  0  0  0  0  0  0
   10.1690  -32.1820  -30.0500 C   0  0  0  0  0  0  0  0  0  0  0  0
    4.4500  -33.3340  -33.9500 C   0  0  0  0  0  0  0  0  0  0  0  0
   10.3270  -33.9940  -33.1530 C   0  0  0  0  0  0  0  0  0  0  0  0
    8.2340  -33.8060  -33.2340 N   0  0  0  0  0  0  0  0  0  0  0  0
    3.8890  -34.4580  -34.6750 O   0  0  0  0  0  0  0  0  0  0  0  0
   10.3990  -32.8990  -32.3540 N   0  0  0  0  0  0  0  0  0  0  0  0
   11.8450  -33.0400  -28.5420 C   0  0  0  0  0  0  0  0  0  0  0  0
    8.2040  -36.6360  -33.7000 F   0  0  0  0  0  0  0  0  0  0  0  0
    3.1490  -32.7000  -33.0500 C   0  0  0  0  0  0  0  0  0  0  0  0
    7.4060  -33.1400  -33.5750 C   0  0  0  0  0  0  0  0  0  0  0  0
  2 20  1  0
  3  7  2  0
  3 18  1  0
  4 17  1  0
  5 15  2  0
  7  9  1  0
  8 24  1  0
  9 24  2  0
 10  6  1  0
 11 25  1  0
 11 13  1  0
 12 11  1  0
 13 21  1  0
 13 20  1  0
 14 15  1  0
 14 10  1  0
 16 12  1  0
 16  2  2  0
 17  6  1  0
 18  8  2  0
 19 22  1  0
 19 14  1  0
 19 26  1  0
 20 23  1  0
 21  4  1  0
 23  3  1  0
 26  1  1  0
 27 14  1  0
 27 21  1  0
 27  4  1  0
M  END
$$$$

     RDKit          3D

 25 28  0  0  0  0  0  0  0  0999 V2000
    4.4710  -32.1490  -32.2490 C   0  0  0  0  0  0  0  0  0  0  0  0
   11.6820  -32.9050  -29.7790 C   0  0  0  0  0  0  0  0  0  0  0  0
    6.7730  -34.0560  -33.7910 C   0  0  0  0  0  0  0  0  0  0  0  0
   11.6210  -33.6970  -31.1260 C   0  0  0  0  0  0  0  0  0  0  0  0
    8.4300  -36.1790  -33.9910 C   0  0  0  0  0  0  0  0  0  0  0  0
   11.2230  -35.7640  -33.2690 C   0  0  0  0  0  0  0  0  0  0  0  0
    5.9460  -35.6440  -35.2580 C   0  0  0  0  0  0  0  0  0  0  0  0
    8.0340  -32.9860  -32.3280 C   0  0  0  0  0  0  0  0  0  0  0  0
    9.0090  -34.8610  -33.6360 C   0  0  0  0  0  0  0  0  0  0  0  0
    3.4630  -31.6720  -31.9540 C   0  0  0  0  0  0  0  0  0  0  0  0
    9.2230  -32.8300  -31.4850 C   0  0  0  0  0  0  0  0  0  0  0  0
    9.3160  -37.3510  -33.5560 C   0  0  0  0  0  0  0  0  0  0  0  0
    8.0470  -33.8130  -33.3520 N   0  0  0  0  0  0  0  0  0  0  0  0
   10.3510  -33.6360  -31.9100 N   0  0  0  0  0  0  0  0  0  0  0  0
    5.4890  -32.4440  -32.8050 C   0  0  0  0  0  0  0  0  0  0  0  0
    5.2760  -33.6760  -33.6590 C   0  0  0  0  0  0  0  0  0  0  0  0
    4.7060  -35.1220  -35.3650 C   0  0  0  0  0  0  0  0  0  0  0  0
    4.4130  -34.0750  -34.4840 C   0  0  0  0  0  0  0  0  0  0  0  0
    9.2490  -32.0330  -30.4900 O   0  0  0  0  0  0  0  0  0  0  0  0
    6.7240  -31.2200  -31.2810 O   0  0  0  0  0  0  0  0  0  0  0  0
    6.7430  -32.1570  -32.0080 C   0  0  0  0  0  0  0  0  0  0  0  0
   10.6100  -37.0770  -33.7940 C   0  0  0  0  0  0  0  0  0  0  0  0
   10.0790  -34.9570  -32.5650 C   0  0  0  0  0  0  0  0  0  0  0  0
   11.3770  -37.8480  -34.4590 N   0  0  0  0  0  0  0  0  0  0  0  0
    6.7720  -34.7200  -34.4220 C   0  0  0  0  0  0  0  0  0  0  0  0
  1 10  3  0
  3 16  2  0
  3 13  1  0
  4  2  1  0
  5 12  1  0
  7 25  2  0
  8 21  1  0
  8 11  1  0
  9  5  1  0
  9 13  1  0
  9 23  1  0
 11 19  2  0
 13  8  1  0
 14 11  1  0
 14  4  1  0
 15  1  1  0
 15 21  1  0
 16 15  1  0
 17  7  1  0
 17 18  2  0
 18 16  1  0
 21 20  2  0
 22 12  1  0
 22  6  1  0
 23  6  1  0
 23 14  1  0
 24 22  2  0
 25  3  1  0
M  END
$$$$

     RDKit          3D

 19 22  0  0  0  0  0  0  0  0999 V2000
   11.5540  -35.0100  -33.8560 C   0  0  0  0  0  0  0  0  0  0  0  0
   10.0830  -36.8230  -33.5000 C   0  0  0  0  0  0  0  0  0  0  0  0
    7.4580  -34.3000  -34.4790 C   0  0  0  0  0  0  0  0  0  0  0  0
    5.3620  -31.2960  -30.9550 C   0  0  0  0  0  0  0  0  0  0  0  0
    6.1710  -32.6700  -32.9510 C   0  0  0  0  0  0  0  0  0  0  0  0
    9.2600  -32.6190  -31.6390 C   0  0  0  0  0  0  0  0  0  0  0  0
    7.3870  -31.7480  -31.3570 C   0  0  0  0  0  0  0  0  0  0  0  0
   11.2660  -33.5120  -31.2250 O   0  0  0  0  0  0  0  0  0  0  0  0
   10.4330  -33.1150  -30.8540 C   0  0  0  0  0  0  0  0  0  0  0  0
    9.2080  -35.4640  -34.8190 C   0  0  0  0  0  0  0  0  0  0  0  0
   10.4310  -32.9330  -29.6950 C   0  0  0  0  0  0  0  0  0  0  0  0
    6.9710  -33.5600  -33.3360 C   0  0  0  0  0  0  0  0  0  0  0  0
    8.3140  -35.3750  -35.3010 C   0  0  0  0  0  0  0  0  0  0  0  0
    6.5050  -31.8290  -32.1220 C   0  0  0  0  0  0  0  0  0  0  0  0
    8.8530  -34.6910  -33.3300 C   0  0  0  0  0  0  0  0  0  0  0  0
   10.0530  -35.4280  -33.4360 C   0  0  0  0  0  0  0  0  0  0  0  0
    7.8800  -33.8420  -32.8290 C   0  0  0  0  0  0  0  0  0  0  0  0
    8.9150  -33.5990  -32.6230 C   0  0  0  0  0  0  0  0  0  0  0  0
    8.2530  -34.9800  -34.5240 C   0  0  0  0  0  0  0  0  0  0  0  0
  1 16  1  0
  2 16  1  0
  3 12  2  0
  5 14  1  0
  6  9  1  0
  8  9  2  0
  9 11  1  0
 10 13  1  0
 10 19  1  0
 10 16  1  0
 12  5  1  0
 14  7  2  0
 14  4  1  0
 15 16  1  0
 15 17  1  0
 15 18  1  0
 17 12  1  0
 17 18  1  0
 18  6  1  0
 19 13  1  0
 19  3  1  0
 19 15  1  0
M  END
$$$$

     RDKit          3D

 17 20  0  0  0  0  0  0  0  0999 V2000
   11.4670  -34.7020  -34.0350 S   0  0  0  0  0  0  0  0  0  0  0  0
    9.0390  -36.0590  -33.9020 C   0  0  0  0  0  0  0  0  0  0  0  0
    8.8860  -34.9960  -34.0380 C   0  0  0  0  0  0  0  0  0  0  0  0
    5.9140  -32.4780  -32.8790 C   0  0  0  0  0  0  0  0  0  0  0  0
    8.6590  -35.0300  -33.6910 C   0  0  0  0  0  0  0  0  0  0  0  0
    6.3020  -31.7870  -31.8570 C   0  0  0  0  0  0  0  0  0  0  0  0
    7.8460  -33.7600  -33.1570 C   0  0  0  0  0  0  0  0  0  0  0  0
   10.4100  -37.4590  -33.7570 C   0  0  0  0  0  0  0  0  0  0  0  0
    7.4510  -31.7990  -31.2780 C   0  0  0  0  0  0  0  0  0  0  0  0
    8.7960  -36.3040  -33.2470 C   0  0  0  0  0  0  0  0  0  0  0  0
    6.4600  -33.5040  -33.4540 C   0  0  0  0  0  0  0  0  0  0  0  0
    9.2580  -34.1200  -32.5470 C   0  0  0  0  0  0  0  0  0  0  0  0
   10.1060  -34.1490  -33.5220 C   0  0  0  0  0  0  0  0  0  0  0  0
    8.5800  -32.3520  -31.2720 C   0  0  0  0  0  0  0  0  0  0  0  0
    8.5730  -33.0220  -32.1780 C   0  0  0  0  0  0  0  0  0  0  0  0
    9.8040  -36.6490  -33.6730 C   0  0  0  0  0  0  0  0  0  0  0  0
   10.7100  -34.1420  -31.5860 S   0  0  0  0  0  0  0  0  0  0  0  0
  1 13  1  0
  2 16  1  0
  2 10  1  0
  3  2  1  0
  4  6  1  0
  5  3  1  0
  5 10  1  0
  5  7  1  0
  5 12  1  0
  6  9  2  0
  7 11  1  0
  7 12  1  0
  7 15  1  0
  8 16  3  0
  9 14  1  0
 11  4  1  0
 12 13  1  0
 12 15  1  0
 13 17  1  0
 15 14  1  0
M  END
$$$$

     RDKit          3D

 34 38  0  0  0  0  0  0  0  0999 V2000
   10.2640  -35.5620  -32.3200 O   0  0  0  0  0  0  0  0  0  0  0  0
    9.3020  -32.0830  -30.4930 O   0  0  0  0  0  0  0  0  0  0  0  0
    7.4600  -35.4590  -35.3630 N   0  0  0  0  0  0  0  0  0  0  0  0
    4.7790  -32.0560  -32.1940 C   0  0  0  0  0  0  0  0  0  0  0  0
    3.8400  -33.3070  -34.6430 O   0  0  0  0  0  0  0  0  0  0  0  0
   11.7380  -34.3890  -33.4670 C   0  0  0  0  0  0  0  0  0  0  0  0
    5.4080  -31.2740  -31.2280 C   0  0  0  0  0  0  0  0  0  0  0  0
    6.8810  -31.6800  -31.0420 C   0  0  0  0  0  0  0  0  0  0  0  0
   11.3480  -31.5680  -29.4700 O   0  0  0  0  0  0  0  0  0  0  0  0
    6.6680  -35.7760  -37.4070 O   0  0  0  0  0  0  0  0  0  0  0  0
    5.9980  -33.2490  -33.9600 C   0  0  0  0  0  0  0  0  0  0  0  0
    3.6190  -34.3270  -37.4410 C   0  0  0  0  0  0  0  0  0  0  0  0
    6.8860  -33.9520  -33.6340 O   0  0  0  0  0  0  0  0  0  0  0  0
    6.4280  -32.2790  -32.2720 C   0  0  0  0  0  0  0  0  0  0  0  0
    9.8470  -33.1380  -30.8510 C   0  0  0  0  0  0  0  0  0  0  0  0
    8.7820  -33.4740  -32.3180 C   0  0  0  0  0  0  0  0  0  0  0  0
    8.2260  -34.1260  -31.4670 O   0  0  0  0  0  0  0  0  0  0  0  0
    4.5350  -33.6490  -34.9450 C   0  0  0  0  0  0  0  0  0  0  0  0
   10.9920  -34.6870  -32.1190 C   0  0  0  0  0  0  0  0  0  0  0  0
    8.5050  -35.6240  -35.1540 C   0  0  0  0  0  0  0  0  0  0  0  0
   10.0880  -37.2390  -34.0260 C   0  0  0  0  0  0  0  0  0  0  0  0
    9.1060  -32.7960  -32.9570 F   0  0  0  0  0  0  0  0  0  0  0  0
    9.5580  -35.3330  -36.0390 C   0  0  0  0  0  0  0  0  0  0  0  0
   10.4080  -32.8930  -30.4080 C   0  0  0  0  0  0  0  0  0  0  0  0
   11.7800  -35.5590  -34.3030 C   0  0  0  0  0  0  0  0  0  0  0  0
   11.2080  -32.5480  -29.5740 C   0  0  0  0  0  0  0  0  0  0  0  0
    6.9410  -33.0500  -32.8360 C   0  0  0  0  0  0  0  0  0  0  0  0
    4.3320  -35.3640  -36.2310 C   0  0  0  0  0  0  0  0  0  0  0  0
   11.0350  -33.8370  -31.4290 C   0  0  0  0  0  0  0  0  0  0  0  0
    6.6130  -35.3250  -36.1020 C   0  0  0  0  0  0  0  0  0  0  0  0
    5.2320  -34.7420  -35.6330 C   0  0  0  0  0  0  0  0  0  0  0  0
   11.7000  -33.2870  -31.8110 C   0  0  0  0  0  0  0  0  0  0  0  0
    8.6310  -36.8500  -34.4030 C   0  0  0  0  0  0  0  0  0  0  0  0
   10.9270  -36.3650  -33.6580 C   0  0  0  0  0  0  0  0  0  0  0  0
  1 19  1  0
  3 20  1  0
  7  4  1  0
  7  8  1  0
 10 30  2  0
 11 18  1  0
 11 13  1  0
 11 27  1  0
 12 28  1  0
 14  4  1  0
 14  7  1  0
 14  8  1  0
 15  2  1  0
 15 24  1  0
 16 22  1  0
 16 17  1  0
 16 15  1  0
 18  5  2  0
 19  6  1  0
 19 29  1  0
 20 23  1  0
 20 33  1  0
 21 34  1  0
 24 26  1  0
 25  6  1  0
 26  9  2  0
 27 13  1  0
 27 16  1  0
 27 14  1  0
 29 32  1  0
 29 15  1  0
 30 31  1  0
 30  3  1  0
 31 28  1  0
 31 18  1  0
 33 21  1  0
 34 25  1  0
 34  1  1  0
M  END
$$$$

     RDKit          3D

 25 29  0  0  0  0  0  0  0  0999 V2000
    8.2830  -33.0350  -32.2480 C   0  0  0  0  0  0  0  0  0  0  0  0
   12.5770  -33.6620  -31.5360 C   0  0  0  0  0  0  0  0  0  0  0  0
    7.9780  -33.9220  -33.1990 C   0  0  0  0  0  0  0  0  0  0  0  0
   12.3380  -35.2230  -33.2340 F   0  0  0  0  0  0  0  0  0  0  0  0
   12.2560  -33.1450  -33.5350 F   0  0  0  0  0  0  0  0  0  0  0  0
    4.5060  -31.8300  -31.5970 C   0  0  0  0  0  0  0  0  0  0  0  0
    9.5270  -33.0080  -31.8620 C   0  0  0  0  0  0  0  0  0  0  0  0
   11.8970  -34.0600  -32.7540 C   0  0  0  0  0  0  0  0  0  0  0  0
    6.6450  -35.0570  -34.7840 C   0  0  0  0  0  0  0  0  0  0  0  0
   11.8080  -32.4470  -30.8380 C   0  0  0  0  0  0  0  0  0  0  0  0
   10.2790  -34.0100  -32.7480 C   0  0  0  0  0  0  0  0  0  0  0  0
   10.3290  -32.5820  -30.6160 C   0  0  0  0  0  0  0  0  0  0  0  0
    2.0860  -31.3290  -31.4100 C   0  0  0  0  0  0  0  0  0  0  0  0
    5.4630  -33.2250  -33.3680 C   0  0  0  0  0  0  0  0  0  0  0  0
    3.0780  -32.0410  -32.3440 C   0  0  0  0  0  0  0  0  0  0  0  0
    1.9960  -32.6170  -34.1140 O   0  0  0  0  0  0  0  0  0  0  0  0
    6.6900  -34.1610  -33.7510 C   0  0  0  0  0  0  0  0  0  0  0  0
    3.0290  -32.6010  -33.4920 C   0  0  0  0  0  0  0  0  0  0  0  0
    9.0690  -35.6780  -34.5080 C   0  0  0  0  0  0  0  0  0  0  0  0
    7.8660  -35.8600  -35.1350 C   0  0  0  0  0  0  0  0  0  0  0  0
    9.1520  -34.6190  -33.5300 C   0  0  0  0  0  0  0  0  0  0  0  0
    5.5310  -32.4020  -32.1620 C   0  0  0  0  0  0  0  0  0  0  0  0
    5.4770  -35.2390  -35.7160 C   0  0  0  0  0  0  0  0  0  0  0  0
    7.0170  -32.1120  -31.3440 S   0  0  0  0  0  0  0  0  0  0  0  0
    4.2570  -33.4310  -34.0510 C   0  0  0  0  0  0  0  0  0  0  0  0
  1  7  1  0
  1 24  1  0
  2 10  1  0
  3  1  2  0
  4  8  1  0
  5  8  1  0
  7 12  1  0
  8 11  1  0
  8  2  1  0
  9 17  2  0
 10 12  1  0
 11  7  1  0
 14 22  2  0
 15  6  2  0
 15 13  1  0
 16 18  2  0
 17 14  1  0
 17  3  1  0
 18 15  1  0
 19 21  1  0
 20  9  1  0
 20 19  2  0
 21  3  1  0
 21 11  2  0
 22  6  1  0
 22 24  1  0
 23  9  1  0
 25 18  1  0
 25 14  1  0
M  END
$$$$

     RDKit          3D

 16 18  0  0  0  0  0  0  0  0999 V2000
   10.3880  -35.7440  -33.1760 C   0  0  0  0  0  0  0  0  0  0  0  0
    7.8150  -35.3570  -34.3790 C   0  0  0  0  0  0  0  0  0  0  0  0
    8.9090  -34.0820  -32.6500 C   0  0  0  0  0  0  0  0  0  0  0  0
    5.8900  -34.1270  -34.5010 C   0  0  0  0  0  0  0  0  0  0  0  0
   10.0530  -34.6250  -32.2870 C   0  0  0  0  0  0  0  0  0  0  0  0
    6.8720  -33.5370  -33.6420 C   0  0  0  0  0  0  0  0  0  0  0  0
    6.9150  -36.0180  -35.3160 C   0  0  0  0  0  0  0  0  0  0  0  0
    5.9570  -35.2460  -35.3130 C   0  0  0  0  0  0  0  0  0  0  0  0
    8.8100  -33.0980  -31.9050 C   0  0  2  0  0  0  0  0  0  0  0  0
   10.5530  -34.0220  -31.0830 C   0  0  0  0  0  0  0  0  0  0  0  0
    9.5560  -36.2230  -34.0690 C   0  0  0  0  0  0  0  0  0  0  0  0
    8.6040  -35.2660  -34.1860 C   0  0  0  0  0  0  0  0  0  0  0  0
    9.6300  -33.0200  -30.9150 N   0  0  0  0  0  0  0  0  0  0  0  0
    6.7560  -32.5430  -32.7620 C   0  0  0  0  0  0  0  0  0  0  0  0
    8.1820  -34.3620  -33.5480 C   0  0  0  0  0  0  0  0  0  0  0  0
    7.7610  -32.1900  -31.8570 C   0  0  0  0  0  0  0  0  0  0  0  0
  1  5  2  0
  2 12  1  0
  3  5  1  0
  3  9  1  0
  4  6  1  0
  5 10  1  0
  6 14  2  3
  7  8  1  0
  7  2  1  0
  8  4  2  3
  9 16  1  1
  9 13  1  0
 10 13  2  0
 11  1  1  0
 12 11  2  0
 12 15  1  0
 14 16  1  0
 15  3  2  0
M  END
$$$$

     RDKit          3D

 25 32  0  0  0  0  0  0  0  0999 V2000
   12.7010  -33.2480  -30.7180 N   0  0  0  0  0  0  0  0  0  0  0  0
    7.0400  -32.5950  -32.4940 C   0  0  0  0  0  0  0  0  0  0  0  0
    7.9420  -36.0370  -35.2930 C   0  0  0  0  0  0  0  0  0  0  0  0
    6.4410  -36.1260  -35.9130 C   0  0  0  0  0  0  0  0  0  0  0  0
    4.8450  -34.6090  -36.2470 F   0  0  0  0  0  0  0  0  0  0  0  0
   11.4870  -33.7440  -32.5150 C   0  0  0  0  0  0  0  0  0  0  0  0
   10.5480  -33.1070  -31.5610 C   0  0  0  0  0  0  0  0  0  0  0  0
    9.4540  -33.1240  -31.8400 N   0  0  0  0  0  0  0  0  0  0  0  0
    7.3160  -31.8060  -31.7290 C   0  0  0  0  0  0  0  0  0  0  0  0
    5.7750  -35.0490  -35.8090 C   0  0  0  0  0  0  0  0  0  0  0  0
    5.7540  -34.1960  -34.7910 C   0  0  0  0  0  0  0  0  0  0  0  0
    6.8320  -34.1000  -33.8820 C   0  0  0  0  0  0  0  0  0  0  0  0
   10.8290  -32.3020  -29.6040 O   0  0  0  0  0  0  0  0  0  0  0  0
    5.0210  -31.8710  -31.2910 C   0  0  0  0  0  0  0  0  0  0  0  0
    9.3010  -33.6650  -32.9140 C   0  0  0  0  0  0  0  0  0  0  0  0
   10.3330  -34.2450  -33.4290 N   0  0  0  0  0  0  0  0  0  0  0  0
    8.2290  -32.9870  -32.9880 C   0  0  0  0  0  0  0  0  0  0  0  0
    6.1220  -31.3820  -31.0640 C   0  0  0  0  0  0  0  0  0  0  0  0
   11.3510  -32.8270  -30.4930 C   0  0  0  0  0  0  0  0  0  0  0  0
    5.9790  -33.1240  -32.8190 C   0  0  0  0  0  0  0  0  0  0  0  0
   12.7180  -33.6800  -32.0830 C   0  0  0  0  0  0  0  0  0  0  0  0
    4.9230  -32.7790  -32.1680 C   0  0  0  0  0  0  0  0  0  0  0  0
    3.5350  -31.5460  -30.5760 Cl  0  0  0  0  0  0  0  0  0  0  0  0
    8.3290  -34.1390  -33.6160 C   0  0  0  0  0  0  0  0  0  0  0  0
    7.9950  -35.1400  -34.3830 C   0  0  0  0  0  0  0  0  0  0  0  0
  1 19  1  0
  2  9  2  0
  3 25  1  0
  4 10  1  0
  4  3  1  0
  6 21  1  0
  6  7  2  0
  7 19  1  0
  8  7  1  0
  9 18  1  0
 10  5  1  0
 10 11  1  0
 12 11  1  0
 12 24  1  0
 12 20  1  0
 14 18  2  0
 14 23  1  0
 15 16  1  0
 15  8  1  0
 16  6  1  0
 17 15  1  0
 17  2  1  0
 17  8  1  0
 19 13  2  0
 20  2  1  0
 20 22  2  0
 21  1  2  0
 22 14  1  0
 24 17  1  0
 24 15  1  0
 25 12  1  0
 25 24  1  0
M  END
$$$$

     RDKit          3D

 35 39  0  0  0  0  0  0  0  0999 V2000
    8.3600  -35.4350  -35.6550 C   0  0  0  0  0  0  0  0  0  0  0  0
   10.1590  -34.0560  -30.1120 C   0  0  0  0  0  0  0  0  0  0  0  0
    8.6420  -31.4800  -30.1500 C   0  0  0  0  0  0  0  0  0  0  0  0
    8.2530  -35.8820  -36.9220 C   0  0  0  0  0  0  0  0  0  0  0  0
   10.8200  -35.7010  -31.0350 F   0  0  0  0  0  0  0  0  0  0  0  0
    5.9300  -35.6490  -36.7760 C   0  0  0  0  0  0  0  0  0  0  0  0
    7.2390  -34.9330  -35.0030 C   0  0  0  0  0  0  0  0  0  0  0  0
   12.5260  -33.6940  -29.9690 C   0  0  0  0  0  0  0  0  0  0  0  0
    9.6960  -34.3550  -32.7980 C   0  0  0  0  0  0  0  0  0  0  0  0
   11.0210  -34.0260  -32.3570 C   0  0  0  0  0  0  0  0  0  0  0  0
    6.4420  -31.3950  -31.0020 O   0  0  0  0  0  0  0  0  0  0  0  0
   11.0470  -34.7490  -32.9540 C   0  0  0  0  0  0  0  0  0  0  0  0
    4.6830  -34.8620  -35.2970 O   0  0  0  0  0  0  0  0  0  0  0  0
   12.1730  -35.9160  -33.8100 O   0  0  0  0  0  0  0  0  0  0  0  0
   10.7130  -34.5760  -30.9010 C   0  0  0  0  0  0  0  0  0  0  0  0
   10.1670  -36.0980  -34.2840 C   0  0  0  0  0  0  0  0  0  0  0  0
    2.3090  -35.0690  -36.9940 C   0  0  0  0  0  0  0  0  0  0  0  0
    7.3760  -34.1630  -33.8150 C   0  0  0  0  0  0  0  0  0  0  0  0
    8.4540  -33.8400  -32.9430 C   0  0  0  0  0  0  0  0  0  0  0  0
   12.4770  -33.9250  -30.8300 O   0  0  0  0  0  0  0  0  0  0  0  0
    3.2020  -33.9240  -37.6630 C   0  0  0  0  0  0  0  0  0  0  0  0
    9.6150  -35.2840  -35.1860 O   0  0  0  0  0  0  0  0  0  0  0  0
    6.0860  -35.0680  -35.5050 C   0  0  0  0  0  0  0  0  0  0  0  0
    3.8570  -35.0070  -36.6260 C   0  0  0  0  0  0  0  0  0  0  0  0
   11.2700  -35.6420  -33.7860 C   0  0  0  0  0  0  0  0  0  0  0  0
    5.0760  -31.7560  -30.6890 C   0  0  0  0  0  0  0  0  0  0  0  0
    9.3240  -36.7270  -33.7100 O   0  0  0  0  0  0  0  0  0  0  0  0
    5.8490  -32.6860  -32.6900 C   0  0  0  0  0  0  0  0  0  0  0  0
    8.1830  -32.6260  -32.0130 C   0  0  0  0  0  0  0  0  0  0  0  0
    6.1170  -33.4680  -33.6830 C   0  0  0  0  0  0  0  0  0  0  0  0
    9.0910  -32.1510  -31.2330 O   0  0  0  0  0  0  0  0  0  0  0  0
    7.1160  -35.9170  -37.5740 C   0  0  0  0  0  0  0  0  0  0  0  0
   11.4740  -34.0750  -30.8690 C   0  0  0  0  0  0  0  0  0  0  0  0
    4.6530  -35.9880  -37.1300 O   0  0  0  0  0  0  0  0  0  0  0  0
    6.9440  -32.2480  -31.8830 C   0  0  0  0  0  0  0  0  0  0  0  0
  1 22  1  0
  1  7  1  0
  4  1  2  0
  5 15  1  0
  6 23  1  0
  7 18  1  0
 11 26  1  0
 12  9  2  0
 12 10  1  0
 14 25  2  0
 15 33  1  0
 15  2  1  0
 16 25  1  0
 16 27  2  0
 17 24  1  0
 18 30  2  0
 18 19  1  0
 19  9  2  0
 19 29  1  0
 20  8  1  0
 21 17  1  0
 21 24  1  0
 22 16  1  0
 23 13  1  0
 23  7  2  0
 24 13  1  0
 25 12  1  0
 28 35  1  0
 29 35  2  0
 29 31  1  0
 30 28  1  0
 31  3  1  0
 32  4  1  0
 32  6  2  0
 33 10  1  0
 33 20  1  0
 34  6  1  0
 34 24  1  0
 35 11  1  0
M  END
$$$$

     RDKit          3D

 33 39  0  0  0  0  0  0  0  0999 V2000
    3.9290  -33.1700  -32.3140 C   0  0  0  0  0  0  0  0  0  0  0  0
    9.3230  -35.6670  -34.3450 C   0  0  0  0  0  0  0  0  0  0  0  0
   10.4850  -33.9680  -30.1710 N   0  0  0  0  0  0  0  0  0  0  0  0
    9.1630  -33.0660  -31.9690 C   0  0  0  0  0  0  0  0  0  0  0  0
    7.9410  -32.5440  -32.0360 N   0  0  0  0  0  0  0  0  0  0  0  0
   11.8570  -35.4750  -34.2560 C   0  0  0  0  0  0  0  0  0  0  0  0
   12.1290  -34.1440  -33.8340 C   0  0  0  0  0  0  0  0  0  0  0  0
    6.2860  -34.5990  -34.6870 C   0  0  0  0  0  0  0  0  0  0  0  0
   12.1630  -31.7010  -27.9850 N   0  0  0  0  0  0  0  0  0  0  0  0
   11.2560  -32.0500  -28.7510 C   0  0  0  0  0  0  0  0  0  0  0  0
   12.2010  -32.7240  -28.5910 C   0  0  0  0  0  0  0  0  0  0  0  0
    3.9570  -32.1360  -31.1950 C   0  0  0  0  0  0  0  0  0  0  0  0
   10.6310  -36.0960  -34.4350 C   0  0  0  0  0  0  0  0  0  0  0  0
    5.9480  -32.0230  -33.3070 C   0  0  0  0  0  0  0  0  0  0  0  0
    8.9240  -34.4550  -33.7470 C   0  0  0  0  0  0  0  0  0  0  0  0
    7.4570  -34.0430  -33.8720 C   0  0  0  0  0  0  0  0  0  0  0  0
   10.8280  -33.2450  -29.1400 C   0  0  0  0  0  0  0  0  0  0  0  0
    5.3600  -31.5220  -30.9990 C   0  0  0  0  0  0  0  0  0  0  0  0
   10.6180  -31.0790  -28.9560 O   0  0  0  0  0  0  0  0  0  0  0  0
    5.4700  -36.0980  -36.3230 C   0  0  0  0  0  0  0  0  0  0  0  0
    5.8020  -30.8600  -32.3850 C   0  0  0  0  0  0  0  0  0  0  0  0
    3.0310  -36.4200  -36.5170 C   0  0  0  0  0  0  0  0  0  0  0  0
    9.6840  -33.0330  -30.7440 N   0  0  0  0  0  0  0  0  0  0  0  0
    4.1480  -35.4060  -36.3170 C   0  0  0  0  0  0  0  0  0  0  0  0
   11.1830  -33.3600  -33.3620 C   0  0  0  0  0  0  0  0  0  0  0  0
    6.4870  -35.7640  -35.4470 C   0  0  0  0  0  0  0  0  0  0  0  0
    3.8560  -34.5050  -35.1640 C   0  0  0  0  0  0  0  0  0  0  0  0
    4.6940  -32.8390  -33.6250 C   0  0  0  0  0  0  0  0  0  0  0  0
    4.2480  -34.4610  -37.5580 C   0  0  0  0  0  0  0  0  0  0  0  0
    9.8140  -33.6180  -33.0830 C   0  0  0  0  0  0  0  0  0  0  0  0
    5.0800  -34.0190  -34.4520 N   0  0  0  0  0  0  0  0  0  0  0  0
    7.1590  -32.8280  -33.0220 C   0  0  0  0  0  0  0  0  0  0  0  0
   13.3010  -33.4560  -28.7620 O   0  0  0  0  0  0  0  0  0  0  0  0
  1 12  1  0
  4 23  1  0
  5  4  2  0
  6  7  2  0
  7 25  1  0
  8 31  1  0
  8 16  2  0
 10 19  1  0
 10 11  1  0
 10  9  1  0
 11 33  1  0
 11  9  1  0
 12 18  1  0
 13  2  2  0
 13  6  1  0
 14 32  1  0
 14 21  1  0
 15  2  1  0
 15 30  1  0
 16 15  1  0
 17  3  1  0
 17 10  1  0
 17 11  1  0
 20 24  1  0
 20 26  2  0
 21 18  1  0
 22 24  1  0
 23  3  1  0
 24 27  1  0
 25 30  2  0
 26  8  1  0
 27 31  1  0
 28 14  1  0
 28  1  1  0
 29 24  1  0
 30  4  1  0
 31 28  1  0
 32 16  1  0
 32  5  1  0
M  END
$$$$

     RDKit          3D

 29 32  0  0  0  0  0  0  0  0999 V2000
    2.7420  -33.8740  -36.0300 C   0  0  0  0  0  0  0  0  0  0  0  0
    3.8250  -34.7050  -36.6220 C   0  0  0  0  0  0  0  0  0  0  0  0
    6.6600  -33.9700  -33.6200 C   0  0  0  0  0  0  0  0  0  0  0  0
    3.4500  -35.8950  -37.1770 O   0  0  0  0  0  0  0  0  0  0  0  0
    9.2690  -31.9920  -31.2950 N   0  0  0  0  0  0  0  0  0  0  0  0
    6.9030  -31.4270  -31.7360 N   0  0  0  0  0  0  0  0  0  0  0  0
   10.3160  -31.7860  -29.3260 O   0  0  0  0  0  0  0  0  0  0  0  0
   10.2390  -32.3410  -30.3890 C   0  0  0  0  0  0  0  0  0  0  0  0
    9.3580  -35.4190  -34.0810 C   0  0  0  0  0  0  0  0  0  0  0  0
    5.3680  -33.3660  -33.5130 C   0  0  0  0  0  0  0  0  0  0  0  0
   10.5990  -35.5730  -34.7540 C   0  0  0  0  0  0  0  0  0  0  0  0
    1.7230  -33.3560  -36.3930 C   0  0  0  0  0  0  0  0  0  0  0  0
    9.3820  -34.8410  -32.8240 C   0  0  0  0  0  0  0  0  0  0  0  0
    8.1580  -35.7630  -34.6140 O   0  0  0  0  0  0  0  0  0  0  0  0
    4.4860  -33.8320  -34.5750 C   0  0  0  0  0  0  0  0  0  0  0  0
   11.7770  -35.0090  -34.1910 C   0  0  0  0  0  0  0  0  0  0  0  0
   12.1800  -32.7280  -31.3570 O   0  0  0  0  0  0  0  0  0  0  0  0
   10.4370  -33.9410  -32.2440 C   0  0  0  0  0  0  0  0  0  0  0  0
    5.5890  -31.7750  -31.3140 C   0  0  0  0  0  0  0  0  0  0  0  0
    3.5330  -32.9350  -31.8700 C   0  0  0  0  0  0  0  0  0  0  0  0
    4.9070  -32.4710  -32.3680 C   0  0  0  0  0  0  0  0  0  0  0  0
   11.0640  -33.3270  -30.8310 C   0  0  0  0  0  0  0  0  0  0  0  0
    6.0550  -35.2780  -35.6020 C   0  0  0  0  0  0  0  0  0  0  0  0
    7.6000  -32.3850  -29.7670 O   0  0  0  0  0  0  0  0  0  0  0  0
    4.7610  -34.7200  -35.5040 C   0  0  0  0  0  0  0  0  0  0  0  0
   11.7350  -34.2350  -33.0490 C   0  0  0  0  0  0  0  0  0  0  0  0
    7.9380  -31.9730  -30.9240 C   0  0  0  0  0  0  0  0  0  0  0  0
   12.8630  -33.5400  -32.2700 C   0  0  0  0  0  0  0  0  0  0  0  0
    6.9590  -34.9320  -34.6250 C   0  0  0  0  0  0  0  0  0  0  0  0
  2  4  1  0
  2  1  1  0
  2 25  1  0
  3 10  2  0
  5 27  1  0
  5  8  1  0
  6 19  1  0
  6 27  1  0
  8  7  2  0
  9 13  1  0
 10 21  1  0
 11 16  1  0
 11  9  2  0
 12  1  2  0
 13 18  2  0
 14  9  1  0
 15 10  1  0
 16 26  2  0
 17 22  1  0
 21 20  1  0
 21 19  1  0
 22 18  1  0
 22  8  1  0
 23 25  1  0
 23 29  2  0
 25 15  2  0
 26 28  1  0
 26 18  1  0
 27 24  2  0
 28 17  1  0
 29 14  1  0
 29  3  1  0
M  END
$$$$

     RDKit          3D

 26 28  0  0  0  0  0  0  0  0999 V2000
   10.1960  -35.0590  -33.7440 C   0  0  0  0  0  0  0  0  0  0  0  0
   11.1630  -34.5590  -30.5120 C   0  0  0  0  0  0  0  0  0  0  0  0
    9.3420  -34.5080  -34.2330 N   0  0  0  0  0  0  0  0  0  0  0  0
    2.1980  -31.8830  -31.5340 C   0  0  0  0  0  0  0  0  0  0  0  0
    2.3240  -31.2430  -30.3590 C   0  0  0  0  0  0  0  0  0  0  0  0
    7.0840  -33.0700  -33.0940 C   0  0  0  0  0  0  0  0  0  0  0  0
   10.6040  -35.0160  -31.5990 C   0  0  0  0  0  0  0  0  0  0  0  0
    4.8400  -33.3150  -33.4810 C   0  0  0  0  0  0  0  0  0  0  0  0
    5.0720  -34.3360  -34.3840 C   0  0  0  0  0  0  0  0  0  0  0  0
   10.9170  -34.5930  -32.7540 C   0  0  0  0  0  0  0  0  0  0  0  0
   12.0420  -33.4790  -30.6500 C   0  0  0  0  0  0  0  0  0  0  0  0
    3.6730  -31.0820  -30.1700 C   0  0  0  0  0  0  0  0  0  0  0  0
    3.5690  -32.9030  -33.0560 C   0  0  0  0  0  0  0  0  0  0  0  0
    6.3630  -34.7280  -34.6780 C   0  0  0  0  0  0  0  0  0  0  0  0
   11.6650  -33.6650  -32.9020 C   0  0  0  0  0  0  0  0  0  0  0  0
    8.8620  -37.6410  -33.5470 C   0  0  0  0  0  0  0  0  0  0  0  0
    2.5660  -32.9960  -33.8530 O   0  0  0  0  0  0  0  0  0  0  0  0
    4.1590  -31.5500  -31.2090 C   0  0  0  0  0  0  0  0  0  0  0  0
   12.2550  -33.0820  -31.7700 C   0  0  0  0  0  0  0  0  0  0  0  0
    8.6190  -34.2170  -33.7240 N   0  0  0  0  0  0  0  0  0  0  0  0
    3.5010  -32.2110  -31.9870 N   0  0  0  0  0  0  0  0  0  0  0  0
   10.7250  -36.4130  -34.1770 C   0  0  0  0  0  0  0  0  0  0  0  0
   11.8970  -36.1400  -34.5280 O   0  0  0  0  0  0  0  0  0  0  0  0
   10.2670  -37.6470  -34.0250 C   0  0  0  0  0  0  0  0  0  0  0  0
    7.3630  -34.0720  -33.9220 C   0  0  0  0  0  0  0  0  0  0  0  0
    5.9880  -32.8610  -32.9280 N   0  0  0  0  0  0  0  0  0  0  0  0
  1  3  1  0
  1 10  1  0
  3 20  1  0
  4  5  1  0
  5 12  1  0
  6 26  2  0
  7  2  2  0
  8 13  1  0
  8 26  1  0
  9  8  2  0
 10  7  1  0
 11  2  1  0
 13 21  1  0
 14  9  1  0
 14 25  2  0
 15 10  2  0
 15 19  1  0
 17 13  2  0
 18 12  1  0
 19 11  2  0
 21  4  1  0
 21 18  1  0
 22 24  1  0
 22  1  1  0
 23 22  2  0
 24 16  1  0
 25 20  1  0
 25  6  1  0
M  END
$$$$

     RDKit          3D

 31 35  0  0  0  0  0  0  0  0999 V2000
   11.5350  -35.1990  -33.2950 C   0  0  0  0  0  0  0  0  0  0  0  0
    9.2140  -34.5310  -32.7640 C   0  0  0  0  0  0  0  0  0  0  0  0
   10.6470  -34.4030  -32.2890 C   0  0  0  0  0  0  0  0  0  0  0  0
   12.5530  -33.0620  -32.7000 C   0  0  0  0  0  0  0  0  0  0  0  0
    3.0460  -32.4990  -33.6970 C   0  0  0  0  0  0  0  0  0  0  0  0
    3.4610  -34.6720  -37.8880 C   0  0  0  0  0  0  0  0  0  0  0  0
    2.5440  -33.9020  -38.9110 C   0  0  0  0  0  0  0  0  0  0  0  0
   10.0700  -36.9610  -31.7780 C   0  0  0  0  0  0  0  0  0  0  0  0
    4.3300  -32.9310  -33.0020 C   0  0  0  0  0  0  0  0  0  0  0  0
   12.5410  -34.1360  -33.7620 C   0  0  0  0  0  0  0  0  0  0  0  0
    3.8220  -34.1070  -35.5430 N   0  0  0  0  0  0  0  0  0  0  0  0
    2.7680  -33.1230  -35.0550 C   0  0  0  0  0  0  0  0  0  0  0  0
    6.7180  -33.3610  -33.4550 C   0  0  0  0  0  0  0  0  0  0  0  0
    7.6150  -31.8290  -32.4960 O   0  0  0  0  0  0  0  0  0  0  0  0
    9.1440  -36.1060  -32.5830 C   0  0  0  0  0  0  0  0  0  0  0  0
    6.0840  -35.1390  -35.4020 C   0  0  0  0  0  0  0  0  0  0  0  0
    5.4120  -33.4490  -33.8680 C   0  0  0  0  0  0  0  0  0  0  0  0
   11.6290  -32.4210  -29.5060 F   0  0  0  0  0  0  0  0  0  0  0  0
    3.2750  -34.9780  -36.5780 C   0  0  0  0  0  0  0  0  0  0  0  0
   12.8330  -33.8290  -29.7360 F   0  0  0  0  0  0  0  0  0  0  0  0
    7.3450  -35.1790  -34.7450 C   0  0  0  0  0  0  0  0  0  0  0  0
    8.7490  -32.9700  -32.2360 N   0  0  0  0  0  0  0  0  0  0  0  0
    5.1340  -34.2260  -34.8920 C   0  0  0  0  0  0  0  0  0  0  0  0
    4.8100  -34.4350  -38.3200 O   0  0  0  0  0  0  0  0  0  0  0  0
   10.6840  -34.5090  -29.6360 F   0  0  0  0  0  0  0  0  0  0  0  0
   11.4880  -33.4120  -31.6490 C   0  0  0  0  0  0  0  0  0  0  0  0
   10.7340  -35.7980  -34.3460 C   0  0  0  0  0  0  0  0  0  0  0  0
    9.5210  -36.4250  -33.9490 O   0  0  0  0  0  0  0  0  0  0  0  0
    7.8620  -32.6730  -33.0090 C   0  0  0  0  0  0  0  0  0  0  0  0
   11.6470  -33.6310  -30.0170 C   0  0  0  0  0  0  0  0  0  0  0  0
    7.6130  -34.2830  -33.7400 C   0  0  0  0  0  0  0  0  0  0  0  0
  1 27  1  0
  1  3  1  0
  2 31  1  0
  2 15  1  0
  2  3  1  0
  3 26  1  0
  4 26  1  0
  5  9  2  0
  6 19  1  0
  7  6  1  0
 10  1  1  0
 10  4  1  0
 11 12  1  0
 11 23  1  0
 12  5  1  0
 13 29  1  0
 15  8  1  0
 16 23  1  0
 16 21  2  0
 17 13  1  0
 17  9  1  0
 19 11  1  0
 21 31  1  0
 23 17  2  0
 24  6  1  0
 26 30  1  0
 27 28  1  0
 28 15  1  0
 29 14  1  0
 29 22  1  0
 30 20  1  0
 30 25  1  0
 30 18  1  0
 31 13  1  0
 31 29  1  0
M  END
$$$$

     RDKit          3D

 18 20  0  0  0  0  0  0  0  0999 V2000
    7.0590  -33.4180  -33.2710 C   0  0  0  0  0  0  0  0  0  0  0  0
    3.0630  -33.8590  -39.1820 C   0  0  0  0  0  0  0  0  0  0  0  0
    8.0140  -36.2530  -35.5380 C   0  0  0  0  0  0  0  0  0  0  0  0
    5.6700  -34.6010  -37.4980 C   0  0  0  0  0  0  0  0  0  0  0  0
    6.0070  -33.8680  -33.9460 C   0  0  0  0  0  0  0  0  0  0  0  0
    4.3490  -34.3660  -39.4290 O   0  0  0  0  0  0  0  0  0  0  0  0
   10.6040  -34.5750  -34.0440 C   0  0  0  0  0  0  0  0  0  0  0  0
    5.2890  -33.6690  -38.5250 C   0  0  0  0  0  0  0  0  0  0  0  0
    7.3000  -32.5800  -32.3360 O   0  0  0  0  0  0  0  0  0  0  0  0
    3.7640  -34.0140  -36.5080 C   0  0  0  0  0  0  0  0  0  0  0  0
    2.7850  -34.2880  -37.5830 C   0  0  0  0  0  0  0  0  0  0  0  0
    9.1950  -36.4850  -33.2870 C   0  0  0  0  0  0  0  0  0  0  0  0
    5.2310  -34.6640  -36.3530 C   0  0  0  0  0  0  0  0  0  0  0  0
    8.9120  -37.1440  -34.4890 C   0  0  0  0  0  0  0  0  0  0  0  0
    9.3810  -35.0230  -33.5320 N   0  0  0  0  0  0  0  0  0  0  0  0
    7.3200  -35.1430  -34.9210 C   0  0  0  0  0  0  0  0  0  0  0  0
    6.1490  -34.7390  -35.1220 C   0  0  0  0  0  0  0  0  0  0  0  0
    8.0520  -34.4490  -33.7710 C   0  0  0  0  0  0  0  0  0  0  0  0
  1  9  2  0
  2 11  1  0
  3 16  1  0
  3 14  1  0
  5  1  1  0
  6  2  1  0
  6  8  1  0
  7 15  1  0
  8  4  1  0
 10 13  1  0
 11 10  1  0
 13  4  1  0
 13 17  1  0
 14 12  1  0
 15 12  1  0
 16 18  2  0
 17 16  1  0
 17  5  1  0
 18 15  1  0
 18  1  1  0
M  END
$$$$

     RDKit          3D

 15 17  0  0  0  0  0  0  0  0999 V2000
    5.1390  -32.0290  -31.7340 C   0  0  0  0  0  0  0  0  0  0  0  0
    7.6760  -33.4860  -33.1150 C   0  0  0  0  0  0  0  0  0  0  0  0
    8.0960  -32.7460  -32.1010 C   0  0  0  0  0  0  0  0  0  0  0  0
    5.9430  -34.8290  -35.2420 O   0  0  0  0  0  0  0  0  0  0  0  0
    6.4400  -33.6070  -33.7010 C   0  0  0  0  0  0  0  0  0  0  0  0
   10.0470  -34.1850  -32.0840 C   0  0  0  0  0  0  0  0  0  0  0  0
    8.4750  -34.3230  -33.6290 C   0  0  0  0  0  0  0  0  0  0  0  0
    9.2730  -33.1230  -31.4280 C   0  0  0  0  0  0  0  0  0  0  0  0
    6.7780  -34.4880  -34.4320 C   0  0  0  0  0  0  0  0  0  0  0  0
    4.0510  -32.3360  -32.4010 C   0  0  0  0  0  0  0  0  0  0  0  0
    7.8950  -34.8490  -34.5460 N   0  0  0  0  0  0  0  0  0  0  0  0
    4.1480  -32.9470  -33.7440 C   0  0  0  0  0  0  0  0  0  0  0  0
    5.5430  -32.3010  -32.4790 C   0  0  0  0  0  0  0  0  0  0  0  0
    9.7990  -34.6080  -33.2830 C   0  0  0  0  0  0  0  0  0  0  0  0
    5.3670  -32.9730  -33.2620 C   0  0  0  0  0  0  0  0  0  0  0  0
  2  3  1  0
  3  8  1  0
  4  9  2  0
  5 15  1  0
  5  2  2  0
  6  8  1  0
  7 14  1  0
  7  2  1  0
  9  5  1  0
 10  1  1  0
 11  9  1  0
 11  7  2  0
 12 15  1  0
 12 10  1  0
 13  1  1  0
 14  6  1  0
 15 13  1  0
M  END
$$$$

     RDKit          3D

 22 25  0  0  0  0  0  0  0  0999 V2000
    9.5580  -35.4280  -34.6760 C   0  0  0  0  0  0  0  0  0  0  0  0
    7.0560  -34.2470  -33.8440 C   0  0  0  0  0  0  0  0  0  0  0  0
    5.5980  -33.3440  -33.9600 O   0  0  0  0  0  0  0  0  0  0  0  0
   10.6720  -34.5280  -33.4600 C   0  0  0  0  0  0  0  0  0  0  0  0
    4.7730  -33.6550  -34.9110 C   0  0  0  0  0  0  0  0  0  0  0  0
   11.2730  -33.4030  -31.6600 C   0  0  0  0  0  0  0  0  0  0  0  0
    4.7480  -34.1830  -36.2950 C   0  0  0  0  0  0  0  0  0  0  0  0
   11.8620  -34.0770  -33.6230 O   0  0  0  0  0  0  0  0  0  0  0  0
   10.5010  -34.4390  -31.9540 C   0  0  0  0  0  0  0  0  0  0  0  0
    3.6060  -34.3600  -34.8860 O   0  0  0  0  0  0  0  0  0  0  0  0
    8.3820  -34.0700  -33.1120 C   0  0  0  0  0  0  0  0  0  0  0  0
   12.3340  -32.9090  -29.4360 O   0  0  0  0  0  0  0  0  0  0  0  0
    8.2540  -33.0460  -32.1920 C   0  0  0  0  0  0  0  0  0  0  0  0
    8.6730  -32.5210  -31.3100 O   0  0  0  0  0  0  0  0  0  0  0  0
    6.6530  -35.0030  -34.7740 O   0  0  0  0  0  0  0  0  0  0  0  0
    3.8770  -34.1360  -37.1160 O   0  0  0  0  0  0  0  0  0  0  0  0
    7.1540  -32.5540  -32.4080 N   0  0  0  0  0  0  0  0  0  0  0  0
    9.5130  -34.8220  -33.1130 C   0  0  0  0  0  0  0  0  0  0  0  0
   11.0340  -35.8890  -34.1800 C   0  0  0  0  0  0  0  0  0  0  0  0
   11.1860  -32.8340  -30.1570 C   0  0  0  0  0  0  0  0  0  0  0  0
    6.4700  -33.3410  -33.1710 C   0  0  0  0  0  0  0  0  0  0  0  0
   12.4740  -34.0770  -31.4670 O   0  0  0  0  0  0  0  0  0  0  0  0
  1 19  1  0
  2 21  1  0
  3 21  1  0
  4  8  1  0
  4 18  1  0
  4  9  1  0
  5 10  1  0
  5  3  1  0
  6 22  1  0
  6 20  1  0
  7 16  1  0
  7  5  1  0
  7 10  1  0
  9  6  1  0
 11  2  1  0
 11 13  1  0
 13 14  2  0
 15  2  2  0
 17 13  1  0
 18  1  1  0
 18 11  1  0
 18  9  1  0
 19  4  1  0
 20 12  1  0
 21 17  2  0
M  END
$$$$

     RDKit          3D

 18 21  0  0  0  0  0  0  0  0999 V2000
    9.2520  -32.2040  -30.3940 C   0  0  0  0  0  0  0  0  0  0  0  0
    6.9710  -33.5060  -33.0540 C   0  0  0  0  0  0  0  0  0  0  0  0
    8.1690  -33.3760  -32.2040 C   0  0  0  0  0  0  0  0  0  0  0  0
    9.1580  -37.1960  -34.5240 O   0  0  0  0  0  0  0  0  0  0  0  0
    8.2650  -32.3930  -31.2640 C   0  0  0  0  0  0  0  0  0  0  0  0
    5.6430  -34.8640  -35.4290 C   0  0  0  0  0  0  0  0  0  0  0  0
    4.8730  -33.8460  -34.9710 C   0  0  0  0  0  0  0  0  0  0  0  0
    7.9340  -35.2180  -34.0630 C   0  0  0  0  0  0  0  0  0  0  0  0
    4.8890  -32.9210  -33.9820 C   0  0  0  0  0  0  0  0  0  0  0  0
    5.9150  -32.7190  -33.0200 C   0  0  0  0  0  0  0  0  0  0  0  0
    9.5850  -35.2320  -33.2370 N   0  0  0  0  0  0  0  0  0  0  0  0
   10.3730  -33.8250  -31.5020 C   0  0  0  0  0  0  0  0  0  0  0  0
   10.3560  -32.8970  -30.5420 N   0  0  0  0  0  0  0  0  0  0  0  0
    9.3820  -34.1240  -32.3930 C   0  0  0  0  0  0  0  0  0  0  0  0
    8.9940  -35.9440  -34.0100 C   0  0  0  0  0  0  0  0  0  0  0  0
    7.1490  -34.4990  -33.8390 C   0  0  0  0  0  0  0  0  0  0  0  0
    9.3890  -38.1920  -33.5840 C   0  0  0  0  0  0  0  0  0  0  0  0
    6.7950  -35.1850  -34.7990 C   0  0  0  0  0  0  0  0  0  0  0  0
  2 10  1  0
  2  3  1  0
  3  5  1  0
  4 15  1  0
  4 17  1  0
  5  1  2  0
  6  7  2  0
  7  9  1  0
  8 15  1  0
  8 16  1  0
  9 10  2  0
 11 14  1  0
 12 13  2  0
 13  1  1  0
 14  3  2  0
 14 12  1  0
 15 11  2  0
 16  2  2  0
 18  6  1  0
 18  8  1  0
 18 16  1  0
M  END
$$$$

     RDKit          3D

 20 23  0  0  0  0  0  0  0  0999 V2000
    5.0210  -35.4010  -36.5140 C   0  0  0  0  0  0  0  0  0  0  0  0
    5.7670  -33.8610  -34.1660 C   0  0  0  0  0  0  0  0  0  0  0  0
    7.2510  -32.9310  -32.3510 C   0  0  0  0  0  0  0  0  0  0  0  0
    6.6700  -35.1450  -35.2600 C   0  0  0  0  0  0  0  0  0  0  0  0
   10.3000  -33.9280  -31.9030 C   0  0  0  0  0  0  0  0  0  0  0  0
    8.4790  -34.5610  -33.6620 C   0  0  0  0  0  0  0  0  0  0  0  0
   10.7090  -33.3060  -31.1040 C   0  0  0  0  0  0  0  0  0  0  0  0
   11.9310  -32.9120  -32.0220 C   0  0  0  0  0  0  0  0  0  0  0  0
   10.7150  -32.5420  -29.9380 O   0  0  0  0  0  0  0  0  0  0  0  0
    4.6580  -34.3580  -35.6780 O   0  0  0  0  0  0  0  0  0  0  0  0
    7.7680  -33.8850  -33.0720 C   0  0  0  0  0  0  0  0  0  0  0  0
    3.7780  -33.9120  -35.0750 C   0  0  0  0  0  0  0  0  0  0  0  0
    8.3940  -35.7360  -34.5140 C   0  0  0  0  0  0  0  0  0  0  0  0
    8.2450  -32.5450  -31.5020 C   0  0  0  0  0  0  0  0  0  0  0  0
    4.3930  -33.7060  -34.0030 C   0  0  0  0  0  0  0  0  0  0  0  0
    6.0830  -32.1330  -32.0820 O   0  0  0  0  0  0  0  0  0  0  0  0
    6.6740  -34.4060  -34.0970 C   0  0  0  0  0  0  0  0  0  0  0  0
    9.4820  -32.9760  -31.5020 C   0  0  0  0  0  0  0  0  0  0  0  0
    5.3020  -35.0090  -35.6380 C   0  0  0  0  0  0  0  0  0  0  0  0
    9.6230  -34.8510  -32.8280 C   0  0  0  0  0  0  0  0  0  0  0  0
  1 19  2  0
  2 15  1  0
  3 16  1  0
  3 14  1  0
  4 13  1  0
  4 17  1  0
  5 18  2  0
  5  7  1  0
  6 11  1  0
  6 20  2  0
  7  8  1  0
  7  9  1  0
 10 19  1  0
 10 12  1  0
 11  3  2  0
 12 15  1  0
 13  6  1  0
 14 18  1  0
 17  2  1  0
 17 11  1  0
 18  7  1  0
 19  4  1  0
 20  5  1  0
M  END
$$$$

     RDKit          3D

 22 26  0  0  0  0  0  0  0  0999 V2000
    5.6090  -32.3890  -32.0390 C   0  0  0  0  0  0  0  0  0  0  0  0
   10.1030  -32.6270  -30.1190 O   0  0  0  0  0  0  0  0  0  0  0  0
    3.9840  -33.2640  -33.4150 C   0  0  0  0  0  0  0  0  0  0  0  0
    6.9950  -35.8220  -35.6520 C   0  0  0  0  0  0  0  0  0  0  0  0
    7.4500  -34.2490  -33.7780 C   0  0  0  0  0  0  0  0  0  0  0  0
    9.3980  -32.8140  -33.5340 C   0  0  0  0  0  0  0  0  0  0  0  0
    5.8740  -35.3750  -35.4840 C   0  0  0  0  0  0  0  0  0  0  0  0
    8.5990  -33.8570  -33.1200 C   0  0  0  0  0  0  0  0  0  0  0  0
    6.3090  -33.7360  -33.7650 C   0  0  0  0  0  0  0  0  0  0  0  0
    9.5730  -35.8330  -34.6480 S   0  0  0  0  0  0  0  0  0  0  0  0
    4.9220  -34.8810  -35.1190 C   0  0  0  0  0  0  0  0  0  0  0  0
   10.9360  -34.6430  -32.9700 C   0  0  0  0  0  0  0  0  0  0  0  0
    4.1600  -32.4490  -32.3120 C   0  0  0  0  0  0  0  0  0  0  0  0
    6.3510  -32.9370  -32.6920 O   0  0  0  0  0  0  0  0  0  0  0  0
    7.9240  -35.4850  -34.8770 C   0  0  0  0  0  0  0  0  0  0  0  0
    7.7290  -32.0240  -31.2860 C   0  0  0  0  0  0  0  0  0  0  0  0
   11.0800  -33.6600  -32.0340 C   0  0  0  0  0  0  0  0  0  0  0  0
    9.9800  -33.0690  -31.2580 C   0  0  0  0  0  0  0  0  0  0  0  0
    8.6370  -33.4230  -31.8390 C   0  0  0  0  0  0  0  0  0  0  0  0
    9.6570  -34.9490  -33.3370 C   0  0  0  0  0  0  0  0  0  0  0  0
    6.1360  -31.5590  -31.0090 C   0  0  0  0  0  0  0  0  0  0  0  0
    5.0140  -33.9610  -34.1050 C   0  0  0  0  0  0  0  0  0  0  0  0
  1 13  1  0
  1 21  1  0
  3 13  2  0
  4  7  2  0
  4 15  1  0
  5  9  1  0
  5  8  1  0
  7 11  2  0
  8  6  1  0
  8 19  1  0
  9 14  1  0
 10 20  1  0
 11 22  1  0
 12 17  2  0
 14  1  1  0
 15 10  1  0
 15  5  2  0
 16 21  1  0
 17 18  1  0
 18  2  2  0
 19 16  1  0
 19 18  1  0
 20  8  1  0
 20 12  1  0
 22  9  2  0
 22  3  1  0
M  END
$$$$

     RDKit          3D

 19 21  0  0  0  0  0  0  0  0999 V2000
    4.5450  -34.2460  -36.3810 N   0  0  0  0  0  0  0  0  0  0  0  0
    4.5180  -34.1320  -38.7080 C   0  0  0  0  0  0  0  0  0  0  0  0
    1.9400  -31.4400  -32.0770 C   0  0  0  0  0  0  0  0  0  0  0  0
    2.6840  -33.0270  -34.2170 O   0  0  0  0  0  0  0  0  0  0  0  0
    1.1910  -31.2140  -31.0000 C   0  0  0  0  0  0  0  0  0  0  0  0
    3.0090  -31.8400  -29.4930 C   0  0  0  0  0  0  0  0  0  0  0  0
    3.8150  -33.2470  -33.7540 C   0  0  0  0  0  0  0  0  0  0  0  0
    6.4810  -35.0130  -37.3820 C   0  0  0  0  0  0  0  0  0  0  0  0
    7.0700  -35.4470  -36.1980 C   0  0  0  0  0  0  0  0  0  0  0  0
    6.3410  -35.1850  -35.1020 C   0  0  0  0  0  0  0  0  0  0  0  0
    3.8130  -31.9360  -30.6850 C   0  0  0  0  0  0  0  0  0  0  0  0
    5.2240  -34.4940  -37.5040 C   0  0  0  0  0  0  0  0  0  0  0  0
    5.4960  -32.2700  -31.9080 C   0  0  0  0  0  0  0  0  0  0  0  0
    5.0520  -31.9730  -30.7450 C   0  0  0  0  0  0  0  0  0  0  0  0
    4.3600  -32.2720  -32.8200 C   0  0  0  0  0  0  0  0  0  0  0  0
    5.0730  -34.5960  -35.1890 C   0  0  0  0  0  0  0  0  0  0  0  0
    4.4130  -34.4050  -34.0110 N   0  0  0  0  0  0  0  0  0  0  0  0
    1.6810  -31.4160  -29.6650 C   0  0  0  0  0  0  0  0  0  0  0  0
    3.3090  -31.8930  -31.8650 N   0  0  0  0  0  0  0  0  0  0  0  0
  1 16  2  0
  2 12  1  0
  3 19  1  0
  3  5  1  0
  4  7  2  0
  5 18  2  0
  8  9  1  0
  9 10  2  0
 11  6  2  0
 12  8  2  0
 12  1  1  0
 13 14  1  0
 14 11  1  0
 15  7  1  0
 15 13  1  0
 15 19  1  0
 16 10  1  0
 16 17  1  0
 17  7  1  0
 18  6  1  0
 19 11  1  0
M  END
$$$$

     RDKit          3D

 26 30  0  0  0  0  0  0  0  0999 V2000
    4.1120  -32.2970  -32.4590 C   0  0  0  0  0  0  0  0  0  0  0  0
    8.8110  -34.3890  -33.6830 C   0  0  0  0  0  0  0  0  0  0  0  0
    7.3440  -35.3310  -35.2190 C   0  0  0  0  0  0  0  0  0  0  0  0
    9.3160  -36.2880  -34.7960 C   0  0  0  0  0  0  0  0  0  0  0  0
    1.7660  -31.1980  -30.5940 C   0  0  0  0  0  0  0  0  0  0  0  0
    6.5030  -35.4360  -36.0100 C   0  0  0  0  0  0  0  0  0  0  0  0
    6.4320  -32.1960  -31.9230 C   0  0  0  0  0  0  0  0  0  0  0  0
   12.7130  -33.8390  -29.6920 O   0  0  0  0  0  0  0  0  0  0  0  0
    7.5550  -32.7780  -32.3390 N   0  0  0  0  0  0  0  0  0  0  0  0
    7.4900  -33.6110  -33.2260 C   0  0  0  0  0  0  0  0  0  0  0  0
    3.1190  -31.7260  -30.2850 C   0  0  0  0  0  0  0  0  0  0  0  0
    5.3630  -31.2610  -30.8950 N   0  0  0  0  0  0  0  0  0  0  0  0
   11.4140  -33.6370  -33.2190 C   0  0  0  0  0  0  0  0  0  0  0  0
    5.6580  -32.6820  -32.7780 C   0  0  0  0  0  0  0  0  0  0  0  0
   10.7540  -36.6010  -34.4670 C   0  0  0  0  0  0  0  0  0  0  0  0
    1.8290  -29.7530  -30.5480 C   0  0  0  0  0  0  0  0  0  0  0  0
    6.2960  -33.5540  -33.6530 C   0  0  0  0  0  0  0  0  0  0  0  0
   12.0160  -33.7800  -30.7750 C   0  0  0  0  0  0  0  0  0  0  0  0
    7.7350  -31.2950  -31.2390 O   0  0  0  0  0  0  0  0  0  0  0  0
   10.7040  -34.2560  -30.7600 C   0  0  0  0  0  0  0  0  0  0  0  0
   12.2120  -33.5640  -32.0880 C   0  0  0  0  0  0  0  0  0  0  0  0
    8.6000  -35.2970  -34.6900 C   0  0  0  0  0  0  0  0  0  0  0  0
   11.1000  -35.2120  -34.0010 C   0  0  0  0  0  0  0  0  0  0  0  0
   10.3730  -34.7170  -33.0030 C   0  0  0  0  0  0  0  0  0  0  0  0
   10.3200  -35.0950  -31.7310 C   0  0  0  0  0  0  0  0  0  0  0  0
    4.1490  -31.6340  -31.2960 C   0  0  0  0  0  0  0  0  0  0  0  0
  1 26  1  0
  2 10  1  0
  2 24  1  0
  4 22  1  0
  4 15  1  0
  5 16  1  0
  5 11  1  0
  6  3  3  0
  7 19  1  0
  7 12  1  0
  9  7  1  0
 10  9  2  0
 13 24  1  0
 13 21  1  0
 14  1  1  0
 14  7  1  0
 17 10  1  0
 17 14  2  0
 18 20  1  0
 18  8  1  0
 21 18  2  0
 22  3  1  0
 22  2  1  0
 23 15  1  0
 23 13  1  0
 23 24  1  0
 24 25  1  0
 25 20  1  0
 26 12  1  0
 26 11  1  0
M  END
$$$$

     RDKit          3D

 20 23  0  0  0  0  0  0  0  0999 V2000
    7.7480  -31.6170  -31.4820 O   0  0  0  0  0  0  0  0  0  0  0  0
    7.6680  -33.3670  -32.9990 C   0  0  0  0  0  0  0  0  0  0  0  0
    6.1900  -35.1600  -35.9850 C   0  0  0  0  0  0  0  0  0  0  0  0
    3.4450  -32.3930  -31.1270 C   0  0  0  0  0  0  0  0  0  0  0  0
    5.1950  -35.3000  -36.9040 N   0  0  0  0  0  0  0  0  0  0  0  0
    8.0820  -36.1770  -35.0660 C   0  0  0  0  0  0  0  0  0  0  0  0
    4.4870  -32.3930  -32.1900 C   0  0  0  0  0  0  0  0  0  0  0  0
   11.3870  -32.9000  -32.1680 C   0  0  0  0  0  0  0  0  0  0  0  0
    7.5280  -35.9780  -36.0870 C   0  0  0  0  0  0  0  0  0  0  0  0
    5.6380  -32.0280  -31.8250 C   0  0  0  0  0  0  0  0  0  0  0  0
    6.9970  -32.2690  -32.1740 C   0  0  0  0  0  0  0  0  0  0  0  0
   11.9280  -34.0270  -32.8700 C   0  0  0  0  0  0  0  0  0  0  0  0
    7.4350  -35.4810  -33.6520 C   0  0  0  0  0  0  0  0  0  0  0  0
    6.1830  -34.3680  -34.9700 C   0  0  0  0  0  0  0  0  0  0  0  0
    8.8140  -35.9240  -33.6180 C   0  0  0  0  0  0  0  0  0  0  0  0
    9.2100  -33.6030  -32.8870 C   0  0  0  0  0  0  0  0  0  0  0  0
    9.7020  -34.6640  -33.4690 C   0  0  0  0  0  0  0  0  0  0  0  0
    6.9640  -34.1270  -33.8930 C   0  0  0  0  0  0  0  0  0  0  0  0
    9.9210  -32.8200  -32.1400 C   0  0  0  0  0  0  0  0  0  0  0  0
   11.0700  -34.9190  -33.5210 C   0  0  0  0  0  0  0  0  0  0  0  0
  2 16  1  0
  2 11  1  0
  3 14  2  0
  5  3  1  0
  6  9  1  0
  6 13  1  0
  6 15  1  0
  7 10  1  0
  7  4  1  0
  8 19  2  0
  9  3  1  0
 11 10  1  0
 11  1  2  0
 12  8  1  0
 13 15  1  0
 14 18  1  0
 15 17  1  0
 16 19  1  0
 17 16  2  0
 18 13  1  0
 18  2  1  0
 20 17  1  0
 20 12  2  0
M  END
$$$$

     RDKit          3D

 20 23  0  0  0  0  0  0  0  0999 V2000
    9.8500  -34.1160  -32.9340 C   0  0  0  0  0  0  0  0  0  0  0  0
   11.1240  -33.7860  -33.3610 C   0  0  0  0  0  0  0  0  0  0  0  0
   12.0590  -33.4460  -30.1040 C   0  0  0  0  0  0  0  0  0  0  0  0
    7.6740  -34.6000  -34.0680 N   0  0  0  0  0  0  0  0  0  0  0  0
    5.0590  -32.7630  -32.9550 C   0  0  0  0  0  0  0  0  0  0  0  0
    6.2820  -33.2650  -33.3450 C   0  0  0  0  0  0  0  0  0  0  0  0
    4.0200  -33.0530  -33.7650 C   0  0  0  0  0  0  0  0  0  0  0  0
    9.7880  -35.3970  -34.2910 C   0  0  0  0  0  0  0  0  0  0  0  0
    8.2580  -33.9200  -33.1520 C   0  0  0  0  0  0  0  0  0  0  0  0
    1.6060  -32.6140  -34.0490 N   0  0  0  0  0  0  0  0  0  0  0  0
    9.9460  -33.7270  -31.2460 C   0  0  0  0  0  0  0  0  0  0  0  0
    6.4020  -34.1700  -34.2210 C   0  0  0  0  0  0  0  0  0  0  0  0
    2.7920  -32.3690  -33.4050 C   0  0  0  0  0  0  0  0  0  0  0  0
   11.3600  -33.6870  -31.0690 C   0  0  0  0  0  0  0  0  0  0  0  0
    4.1620  -33.8590  -34.8430 C   0  0  0  0  0  0  0  0  0  0  0  0
    7.5060  -33.0880  -32.7400 N   0  0  0  0  0  0  0  0  0  0  0  0
    5.3820  -34.5190  -35.1270 C   0  0  0  0  0  0  0  0  0  0  0  0
   11.8260  -33.8000  -32.2630 N   0  0  0  0  0  0  0  0  0  0  0  0
    2.6610  -31.5610  -32.5370 O   0  0  0  0  0  0  0  0  0  0  0  0
    8.0310  -35.4620  -34.7670 C   0  0  0  0  0  0  0  0  0  0  0  0
  1  8  1  0
  1 11  1  0
  2  1  1  0
  2 18  1  0
  4  9  1  0
  6  5  2  0
  6 16  1  0
  7 13  1  0
  7  5  1  0
  9  1  1  0
  9 16  2  0
 10 13  1  0
 11 14  1  0
 12  4  1  0
 12  6  1  0
 13 19  2  0
 14  3  1  0
 15  7  2  0
 17 15  1  0
 17 12  2  0
 18 14  2  0
 20  8  2  0
 20  4  1  0
M  END
$$$$

     RDKit          3D

 17 20  0  0  0  0  0  0  0  0999 V2000
    9.9360  -33.3130  -31.7510 C   0  0  0  0  0  0  0  0  0  0  0  0
    9.2290  -35.5470  -33.5970 C   0  0  0  0  0  0  0  0  0  0  0  0
    8.9590  -34.4270  -33.6830 C   0  0  0  0  0  0  0  0  0  0  0  0
    7.2670  -34.3840  -34.0730 C   0  0  0  0  0  0  0  0  0  0  0  0
    7.8910  -33.7690  -33.2860 C   0  0  0  0  0  0  0  0  0  0  0  0
    8.5180  -32.5600  -31.6000 C   0  0  0  0  0  0  0  0  0  0  0  0
    8.8710  -35.2480  -34.5750 C   0  0  0  0  0  0  0  0  0  0  0  0
   10.0510  -33.9210  -33.3790 C   0  0  0  0  0  0  0  0  0  0  0  0
   10.4030  -34.0840  -32.6060 C   0  0  0  0  0  0  0  0  0  0  0  0
    6.3180  -34.4790  -34.4630 C   0  0  0  0  0  0  0  0  0  0  0  0
    5.2420  -33.7650  -34.1880 C   0  0  0  0  0  0  0  0  0  0  0  0
    6.1690  -31.3480  -31.7160 F   0  0  0  0  0  0  0  0  0  0  0  0
    5.2920  -32.7560  -33.3260 C   0  0  0  0  0  0  0  0  0  0  0  0
    7.8170  -32.8540  -32.5130 C   0  0  0  0  0  0  0  0  0  0  0  0
    8.3810  -31.4960  -30.7480 F   0  0  0  0  0  0  0  0  0  0  0  0
    6.4690  -32.5710  -32.5840 C   0  0  0  0  0  0  0  0  0  0  0  0
   10.6770  -33.1180  -30.8700 O   0  0  0  0  0  0  0  0  0  0  0  0
  1  6  1  0
  1 17  2  0
  3  2  1  0
  3  8  1  0
  3  5  1  0
  5  4  1  0
  5 14  1  0
  6 15  1  0
  7  4  1  0
  7  3  1  0
  7  2  1  0
  8  9  1  0
  9  1  1  0
 10 11  1  0
 10  4  2  0
 11 13  2  0
 13 16  1  0
 14  6  1  0
 16 14  2  0
 16 12  1  0
M  END
$$$$

     RDKit          3D

 24 27  0  0  0  0  0  0  0  0999 V2000
   12.5840  -33.6030  -30.9660 C   0  0  0  0  0  0  0  0  0  0  0  0
    8.0550  -32.8590  -31.9370 C   0  0  0  0  0  0  0  0  0  0  0  0
    6.1570  -32.3040  -32.8870 C   0  0  0  0  0  0  0  0  0  0  0  0
    7.3740  -34.0880  -33.6930 N   0  0  0  0  0  0  0  0  0  0  0  0
   10.6420  -32.6820  -29.6770 C   0  0  0  0  0  0  0  0  0  0  0  0
    5.2950  -34.7180  -35.2700 C   0  0  0  0  0  0  0  0  0  0  0  0
   11.9190  -33.0530  -29.8180 C   0  0  0  0  0  0  0  0  0  0  0  0
    9.3670  -36.9160  -35.0580 C   0  0  0  0  0  0  0  0  0  0  0  0
    6.0450  -31.3830  -31.0070 N   0  0  0  0  0  0  0  0  0  0  0  0
    3.1390  -33.0590  -34.8580 C   0  0  0  0  0  0  0  0  0  0  0  0
    8.2930  -33.7310  -32.8890 C   0  0  0  0  0  0  0  0  0  0  0  0
    5.2010  -33.6050  -34.2230 N   0  0  0  0  0  0  0  0  0  0  0  0
    8.8190  -37.5080  -34.2020 C   0  0  0  0  0  0  0  0  0  0  0  0
    6.2410  -33.5440  -33.6510 C   0  0  0  0  0  0  0  0  0  0  0  0
    3.3570  -33.6900  -36.1490 O   0  0  0  0  0  0  0  0  0  0  0  0
   10.3980  -35.3690  -33.7310 C   0  0  0  0  0  0  0  0  0  0  0  0
    3.9410  -34.7780  -36.0090 C   0  0  0  0  0  0  0  0  0  0  0  0
    9.9750  -33.1740  -30.7440 C   0  0  0  0  0  0  0  0  0  0  0  0
   10.4000  -33.8140  -31.8830 C   0  0  0  0  0  0  0  0  0  0  0  0
   11.7660  -33.9740  -32.1020 C   0  0  0  0  0  0  0  0  0  0  0  0
    4.0570  -32.8730  -34.0280 C   0  0  0  0  0  0  0  0  0  0  0  0
    9.7980  -36.7330  -33.5290 C   0  0  0  0  0  0  0  0  0  0  0  0
    9.6270  -34.3040  -32.9610 N   0  0  0  0  0  0  0  0  0  0  0  0
    6.7780  -32.1160  -31.8120 C   0  0  0  0  0  0  0  0  0  0  0  0
  1  7  2  0
  2 24  2  0
  3 24  1  0
  4 14  1  0
  4 11  2  0
  6 12  1  0
  7  5  1  0
  8 13  1  0
  8 22  1  0
 10 21  1  0
 11  2  1  0
 12 21  1  0
 12 14  1  0
 13 22  1  0
 14  3  2  0
 15 17  1  0
 15 10  1  0
 16 22  1  0
 16 23  1  0
 17  6  1  0
 18  5  2  0
 19 18  1  0
 20 19  2  0
 20  1  1  0
 23 11  1  0
 23 19  1  0
 24  9  1  0
M  END
$$$$

     RDKit          3D

 36 44  0  0  0  0  0  0  0  0999 V2000
    4.3390  -33.9190  -34.6330 C   0  0  1  0  0  0  0  0  0  0  0  0
    3.4730  -33.0580  -33.1720 C   0  0  1  0  0  0  0  0  0  0  0  0
    9.7480  -37.2190  -34.3430 C   0  0  0  0  0  0  0  0  0  0  0  0
    2.6960  -32.3790  -31.9900 C   0  0  0  0  0  0  0  0  0  0  0  0
    8.5740  -32.7290  -31.7900 C   0  0  1  0  0  0  0  0  0  0  0  0
   10.5600  -34.4460  -32.7240 C   0  0  0  0  0  0  0  0  0  0  0  0
    8.9070  -32.5880  -32.9020 C   0  0  0  0  0  0  0  0  0  0  0  0
    8.4470  -35.5310  -33.9200 N   0  0  0  0  0  0  0  0  0  0  0  0
    4.8750  -34.8760  -35.1620 N   0  0  0  0  0  0  0  0  0  0  0  0
   12.1940  -35.3590  -33.7690 C   0  0  2  0  0  0  0  0  0  0  0  0
    6.8220  -35.8970  -35.3740 C   0  0  0  0  0  0  0  0  0  0  0  0
    2.9870  -33.5630  -34.4110 C   0  0  0  0  0  0  0  0  0  0  0  0
    5.6640  -31.9920  -30.8860 C   0  0  0  0  0  0  0  0  0  0  0  0
   12.3830  -32.7190  -32.5220 C   0  0  0  0  0  0  0  0  0  0  0  0
   10.5240  -33.0100  -30.9170 C   0  0  1  0  0  0  0  0  0  0  0  0
    4.4740  -32.0920  -31.4740 C   0  0  1  0  0  0  0  0  0  0  0  0
    4.4930  -32.7030  -32.7630 N   0  0  0  0  0  0  0  0  0  0  0  0
   11.4040  -33.3540  -32.1390 C   0  0  1  0  0  0  0  0  0  0  0  0
    4.7300  -36.3130  -36.4300 N   0  0  0  0  0  0  0  0  0  0  0  0
   12.9620  -34.9430  -34.3000 O   0  0  0  0  0  0  0  0  0  0  0  0
   12.5870  -34.0010  -31.8640 C   0  0  2  0  0  0  0  0  0  0  0  0
    5.2540  -35.6460  -35.8180 C   0  0  0  0  0  0  0  0  0  0  0  0
    8.1760  -33.3600  -32.8730 N   0  0  0  0  0  0  0  0  0  0  0  0
    3.5930  -32.2310  -31.1260 C   0  0  0  0  0  0  0  0  0  0  0  0
    9.3080  -33.2650  -30.9980 O   0  0  0  0  0  0  0  0  0  0  0  0
   11.9800  -36.4500  -34.3960 C   0  0  0  0  0  0  0  0  0  0  0  0
    7.3640  -35.3000  -34.6310 C   0  0  1  0  0  0  0  0  0  0  0  0
   11.0380  -37.3020  -34.4730 C   0  0  0  0  0  0  0  0  0  0  0  0
   10.3260  -35.3810  -33.5970 C   0  0  0  0  0  0  0  0  0  0  0  0
   11.1720  -34.0360  -30.0170 C   0  0  0  0  0  0  0  0  0  0  0  0
   11.2670  -35.3190  -33.9940 C   0  0  0  0  0  0  0  0  0  0  0  0
    9.5610  -36.2290  -34.1250 C   0  0  1  0  0  0  0  0  0  0  0  0
    5.1260  -33.2450  -33.5870 C   0  0  0  0  0  0  0  0  0  0  0  0
    7.9070  -34.5110  -33.4830 C   0  0  1  0  0  0  0  0  0  0  0  0
    7.1620  -31.8840  -31.3810 C   0  0  0  0  0  0  0  0  0  0  0  0
   12.6610  -33.8290  -30.2900 C   0  0  0  0  0  0  0  0  0  0  0  0
  1 12  1  1
  1 33  1  0
  2 12  1  6
  2 17  1  0
  2  4  1  0
 32  3  1  1
  4 24  1  0
  5  7  1  6
  5 35  1  0
  5 25  1  0
  6 18  1  0
  7 23  1  0
 34  8  1  6
  9  1  1  0
 27 11  1  1
 18 14  1  6
 21 14  1  6
 15 30  1  1
 16 24  1  1
 16 13  1  0
 17 16  1  0
 18 21  1  0
 18 15  1  0
 19 22  2  0
 10 20  1  6
 21 36  1  0
 22 11  1  0
 22  9  1  0
 23  5  1  0
 25 15  1  0
 26 10  1  0
 27  8  1  0
 27 34  1  0
 28 26  1  0
 28  3  1  0
 29  6  2  3
 31 10  1  0
 31 29  1  0
 32  8  1  0
 32 29  1  0
 33 17  1  0
 34 23  1  0
 35 13  1  0
 36 30  1  0
M  END
$$$$

     RDKit          3D

 26 31  0  0  0  0  0  0  0  0999 V2000
    8.8250  -35.7030  -33.7510 C   0  0  0  0  0  0  0  0  0  0  0  0
    7.4790  -33.9900  -33.5880 N   0  0  0  0  0  0  0  0  0  0  0  0
    3.5300  -32.4590  -33.1270 C   0  0  0  0  0  0  0  0  0  0  0  0
    8.2160  -32.8740  -32.0320 C   0  0  0  0  0  0  0  0  0  0  0  0
   11.6300  -33.1090  -31.6840 C   0  0  0  0  0  0  0  0  0  0  0  0
   11.7990  -33.3930  -29.8170 C   0  0  0  0  0  0  0  0  0  0  0  0
   10.2240  -34.5040  -32.2540 C   0  0  0  0  0  0  0  0  0  0  0  0
    5.2090  -31.7070  -31.2650 C   0  0  0  0  0  0  0  0  0  0  0  0
   10.7390  -34.6630  -30.3540 C   0  0  0  0  0  0  0  0  0  0  0  0
    2.7900  -33.6190  -35.0830 O   0  0  0  0  0  0  0  0  0  0  0  0
   10.6800  -35.5220  -33.1100 C   0  0  0  0  0  0  0  0  0  0  0  0
    4.8710  -32.9620  -33.1910 C   0  0  0  0  0  0  0  0  0  0  0  0
    9.8960  -36.1880  -33.6650 C   0  0  0  0  0  0  0  0  0  0  0  0
    5.2960  -33.9140  -34.2150 C   0  0  0  0  0  0  0  0  0  0  0  0
   12.1310  -32.5400  -31.7560 C   0  0  0  0  0  0  0  0  0  0  0  0
   11.9890  -33.3800  -32.3260 C   0  0  0  0  0  0  0  0  0  0  0  0
    2.4930  -32.8400  -34.1170 C   0  0  0  0  0  0  0  0  0  0  0  0
    7.0520  -32.9990  -32.7550 C   0  0  0  0  0  0  0  0  0  0  0  0
    8.6550  -34.3350  -33.5300 C   0  0  0  0  0  0  0  0  0  0  0  0
   11.2680  -33.8940  -31.7490 C   0  0  0  0  0  0  0  0  0  0  0  0
    3.9800  -31.3270  -31.2010 C   0  0  0  0  0  0  0  0  0  0  0  0
    3.0820  -31.6030  -32.1710 C   0  0  0  0  0  0  0  0  0  0  0  0
   11.5290  -33.8840  -29.5410 C   0  0  0  0  0  0  0  0  0  0  0  0
    9.2870  -33.7880  -32.6040 C   0  0  0  0  0  0  0  0  0  0  0  0
    1.2970  -32.4540  -34.0030 O   0  0  0  0  0  0  0  0  0  0  0  0
    5.6620  -32.3860  -32.4850 C   0  0  0  0  0  0  0  0  0  0  0  0
  1 13  1  0
  1 19  1  0
  2 19  2  0
  2 18  1  0
  3 22  1  0
  5 15  1  0
  5  6  1  0
  6 23  2  0
  7 11  1  0
  7 20  1  0
  8 21  2  0
  9 23  1  0
 10 17  2  0
 12  3  2  0
 12 26  1  0
 13 11  1  0
 14 12  1  0
 16 15  1  0
 16 20  1  0
 16  5  1  0
 17 25  1  0
 17  3  1  0
 18 26  1  0
 18  4  1  0
 19 24  1  0
 20  5  1  0
 20  9  1  0
 22 21  1  0
 24  7  1  0
 24  4  2  0
 26  8  1  0
M  END
$$$$
