3pbq_imipenem_iter3_all_filtered_4
 OpenBabel12042511063D

 19 22  0  0  0  0  0  0  0  0999 V2000
   -1.3980   -0.8010  -16.7700 C   0  0  0  0  0  0  0  0  0  0  0  0
   -3.7130   -1.7970  -16.8650 C   0  0  0  0  0  0  0  0  0  0  0  0
   -2.7060   -0.9940  -17.4770 C   0  0  0  0  0  0  0  0  0  0  0  0
   -8.1370   -3.2680  -16.2170 C   0  0  0  0  0  0  0  0  0  0  0  0
   -4.8850   -1.7110  -17.7420 C   0  0  0  0  0  0  0  0  0  0  0  0
   -6.1270   -3.3290  -15.4020 N   0  0  0  0  0  0  0  0  0  0  0  0
   -6.7050   -1.0160  -19.9010 C   0  0  0  0  0  0  0  0  0  0  0  0
   -4.4450   -0.9300  -18.8430 C   0  0  0  0  0  0  0  0  0  0  0  0
   -9.4580   -3.2120  -16.9760 S   0  0  0  0  0  0  0  0  0  0  0  0
   -3.0370   -0.5820  -18.7110 N   0  0  0  0  0  0  0  0  0  0  0  0
   -6.8890   -4.0230  -14.5950 C   0  0  0  0  0  0  0  0  0  0  0  0
   -3.4420   -2.4540  -15.6200 C   0  0  0  0  0  0  0  0  0  0  0  0
   -5.3080   -0.6530  -19.9290 C   0  0  0  0  0  0  0  0  0  0  0  0
   -6.2590   -2.1400  -17.6410 C   0  0  0  0  0  0  0  0  0  0  0  0
   -1.2350   -1.4510  -15.5400 C   0  0  0  0  0  0  0  0  0  0  0  0
   -6.8620   -2.8820  -16.4800 C   0  0  1  0  0  0  0  0  0  0  0  0
   -8.2000   -3.9360  -15.0280 N   0  0  0  0  0  0  0  0  0  0  0  0
   -7.1190   -1.7340  -18.7600 C   0  0  0  0  0  0  0  0  0  0  0  0
   -2.1820   -2.3080  -14.9860 C   0  0  0  0  0  0  0  0  0  0  0  0
  1 15  1  0  0  0  0
  2 12  1  0  0  0  0
  3  2  1  0  0  0  0
  3  1  2  0  0  0  0
  4 17  1  0  0  0  0
  5 14  1  0  0  0  0
  5  2  2  0  0  0  0
  6 11  2  0  0  0  0
  7 18  1  0  0  0  0
  8 10  2  0  0  0  0
  8  5  1  0  0  0  0
  9  4  2  0  0  0  0
 10  3  1  0  0  0  0
 12 19  2  0  0  0  0
 13  7  2  0  0  0  0
 13  8  1  0  0  0  0
 15 19  1  0  0  0  0
 16 14  1  6  0  0  0
 16  4  1  0  0  0  0
 16  6  1  0  0  0  0
 17 11  1  0  0  0  0
 18 14  2  0  0  0  0
M  END
>  <rank>
4

>  <composite_score>
0.6405

>  <smiles>
S=C1NC=NC1c1cccc2c1=C1C=CCC=C1N=2

$$$$
