3pbq_imipenem_iter3_all_filtered_24
 OpenBabel12042511063D

 19 22  0  0  0  0  0  0  0  0999 V2000
   -1.6560   -1.5050  -17.0900 C   0  0  0  0  0  0  0  0  0  0  0  0
   -3.9350   -2.0270  -16.9560 C   0  0  0  0  0  0  0  0  0  0  0  0
   -2.8840   -1.5620  -17.5770 C   0  0  0  0  0  0  0  0  0  0  0  0
   -8.4600   -2.9580  -16.6760 C   0  0  0  0  0  0  0  0  0  0  0  0
   -5.0020   -1.7370  -17.8890 C   0  0  0  0  0  0  0  0  0  0  0  0
   -6.5790   -2.6750  -15.4190 C   0  0  0  0  0  0  0  0  0  0  0  0
   -6.6090   -0.9490  -19.9730 C   0  0  0  0  0  0  0  0  0  0  0  0
   -4.5100   -1.1020  -18.9830 C   0  0  0  0  0  0  0  0  0  0  0  0
   -9.5660   -3.0790  -17.4920 C   0  0  0  0  0  0  0  0  0  0  0  0
   -3.3110   -0.9750  -18.7550 N   0  0  0  0  0  0  0  0  0  0  0  0
   -7.5380   -3.1750  -14.6720 N   0  0  0  0  0  0  0  0  0  0  0  0
   -3.7030   -2.5130  -15.7480 C   0  0  0  0  0  0  0  0  0  0  0  0
   -5.2800   -0.6600  -20.0390 C   0  0  0  0  0  0  0  0  0  0  0  0
   -6.4900   -1.9530  -17.8180 C   0  0  0  0  0  0  0  0  0  0  0  0
   -1.4080   -2.0860  -15.9300 C   0  0  0  0  0  0  0  0  0  0  0  0
   -7.1560   -2.5610  -16.7510 C   0  0  0  0  0  0  0  0  0  0  0  0
   -8.6270   -3.4580  -15.4150 O   0  0  0  0  0  0  0  0  0  0  0  0
   -7.1790   -1.6020  -18.8950 C   0  0  0  0  0  0  0  0  0  0  0  0
   -2.4390   -2.5390  -15.2670 C   0  0  0  0  0  0  0  0  0  0  0  0
  1 15  1  0  0  0  0
  2 12  1  0  0  0  0
  3  1  2  0  0  0  0
  3  2  1  0  0  0  0
  4 17  1  0  0  0  0
  5 14  1  0  0  0  0
  5  2  2  0  0  0  0
  6 11  2  0  0  0  0
  7 18  1  0  0  0  0
  8 10  2  0  0  0  0
  8  5  1  0  0  0  0
  9  4  1  0  0  0  0
 10  3  1  0  0  0  0
 12 19  2  0  0  0  0
 13  7  2  0  0  0  0
 13  8  1  0  0  0  0
 14 16  1  0  0  0  0
 15 19  1  0  0  0  0
 16  4  2  0  0  0  0
 16  6  1  0  0  0  0
 17 11  1  0  0  0  0
 18 14  2  0  0  0  0
M  END
>  <rank>
2

>  <composite_score>
0.6505

>  <smiles>
Cc1oncc1-c1cccc2c1=C1C=CCC=C1N=2

$$$$
