3pbq_imipenem_iter3_all_filtered_36
 OpenBabel12042511063D

 19 22  0  0  0  0  0  0  0  0999 V2000
   -1.1560   -0.8070  -17.4230 C   0  0  0  0  0  0  0  0  0  0  0  0
   -3.4590   -1.6850  -17.2260 C   0  0  0  0  0  0  0  0  0  0  0  0
   -2.4700   -1.0010  -17.9480 C   0  0  0  0  0  0  0  0  0  0  0  0
   -8.1860   -3.2300  -16.6060 C   0  0  0  0  0  0  0  0  0  0  0  0
   -4.7710   -1.5230  -17.9960 C   0  0  0  0  0  0  0  0  0  0  0  0
   -6.1850   -3.1120  -15.5910 N   0  0  0  0  0  0  0  0  0  0  0  0
   -6.7480   -0.8280  -19.9600 C   0  0  0  0  0  0  0  0  0  0  0  0
   -4.5280   -0.9040  -19.2780 C   0  0  0  0  0  0  0  0  0  0  0  0
   -9.1910   -3.0990  -17.3750 N   0  0  0  0  0  0  0  0  0  0  0  0
   -2.8160   -0.5860  -19.4410 S   0  0  0  0  0  0  0  0  0  0  0  0
   -7.0730   -3.8370  -14.7530 C   0  0  0  0  0  0  0  0  0  0  0  0
   -3.1690   -2.1950  -15.9780 C   0  0  0  0  0  0  0  0  0  0  0  0
   -5.3820   -0.5450  -20.1320 N   0  0  0  0  0  0  0  0  0  0  0  0
   -6.1790   -1.9330  -17.8050 C   0  0  0  0  0  0  0  0  0  0  0  0
   -0.8880   -1.3040  -16.1450 C   0  0  0  0  0  0  0  0  0  0  0  0
   -6.8380   -2.7340  -16.7110 C   0  0  0  0  0  0  0  0  0  0  0  0
   -8.2870   -3.9400  -15.4220 O   0  0  0  0  0  0  0  0  0  0  0  0
   -7.1980   -1.4940  -18.7950 C   0  0  0  0  0  0  0  0  0  0  0  0
   -1.9500   -1.9980  -15.4130 C   0  0  0  0  0  0  0  0  0  0  0  0
  1 15  2  0  0  0  0
  2 12  1  0  0  0  0
  3  1  1  0  0  0  0
  3  2  2  0  0  0  0
  4 17  1  0  0  0  0
  5 14  1  0  0  0  0
  5  2  1  0  0  0  0
  6 11  2  0  0  0  0
  7 18  1  0  0  0  0
  8  5  2  0  0  0  0
  9  4  1  0  0  0  0
 10  8  1  0  0  0  0
 10  3  1  0  0  0  0
 12 19  2  0  0  0  0
 13  7  2  0  0  0  0
 13  8  1  0  0  0  0
 14 16  1  0  0  0  0
 15 19  1  0  0  0  0
 16  4  2  0  0  0  0
 16  6  1  0  0  0  0
 17 11  1  0  0  0  0
 18 14  2  0  0  0  0
M  END
>  <rank>
1

>  <composite_score>
0.6854

>  <smiles>
Nc1ocnc1-c1ccnc2sc3ccccc3c12

$$$$
