3pbq_imipenem_iter3_all_filtered_2
 OpenBabel12042511063D

 19 22  0  0  0  0  0  0  0  0999 V2000
   -1.2830   -0.7700  -16.9760 C   0  0  0  0  0  0  0  0  0  0  0  0
   -3.5240   -1.6970  -16.9580 C   0  0  0  0  0  0  0  0  0  0  0  0
   -2.4980   -0.9410  -17.5080 C   0  0  0  0  0  0  0  0  0  0  0  0
   -7.9670   -3.2180  -16.3400 C   0  0  0  0  0  0  0  0  0  0  0  0
   -4.6780   -1.5350  -17.7440 C   0  0  0  0  0  0  0  0  0  0  0  0
   -5.8590   -3.0650  -15.4870 N   0  0  0  0  0  0  0  0  0  0  0  0
   -6.5710   -0.8820  -19.7940 C   0  0  0  0  0  0  0  0  0  0  0  0
   -4.3250   -0.8470  -18.8770 C   0  0  0  0  0  0  0  0  0  0  0  0
   -9.3400   -3.1170  -17.2550 S   0  0  0  0  0  0  0  0  0  0  0  0
   -3.0410   -0.5360  -18.7300 N   0  0  0  0  0  0  0  0  0  0  0  0
   -6.6080   -3.9070  -14.8210 N   0  0  0  0  0  0  0  0  0  0  0  0
   -3.2180   -2.4420  -15.8300 C   0  0  0  0  0  0  0  0  0  0  0  0
   -5.1650   -0.5240  -19.9340 C   0  0  0  0  0  0  0  0  0  0  0  0
   -6.0830   -1.8940  -17.6650 C   0  0  0  0  0  0  0  0  0  0  0  0
   -0.9960   -1.5260  -15.8720 C   0  0  0  0  0  0  0  0  0  0  0  0
   -6.6340   -2.6030  -16.4740 C   0  0  0  0  0  0  0  0  0  0  0  0
   -7.9180   -3.9800  -15.2660 N   0  0  0  0  0  0  0  0  0  0  0  0
   -6.8830   -1.5090  -18.6470 N   0  0  0  0  0  0  0  0  0  0  0  0
   -1.8910   -2.3100  -15.2790 C   0  0  0  0  0  0  0  0  0  0  0  0
  1 15  1  0  0  0  0
  2 12  1  0  0  0  0
  3  1  2  0  0  0  0
  3  2  1  0  0  0  0
  4 17  1  0  0  0  0
  5 14  1  0  0  0  0
  5  2  2  0  0  0  0
  6 11  1  0  0  0  0
  7 18  1  0  0  0  0
  8 10  2  0  0  0  0
  8  5  1  0  0  0  0
  9  4  2  0  0  0  0
 10  3  1  0  0  0  0
 12 19  2  0  0  0  0
 13  7  2  0  0  0  0
 13  8  1  0  0  0  0
 14 16  1  0  0  0  0
 15 19  1  0  0  0  0
 16  4  1  0  0  0  0
 16  6  2  0  0  0  0
 17 11  2  0  0  0  0
 18 14  2  0  0  0  0
M  END
>  <rank>
5

>  <composite_score>
0.6366

>  <smiles>
S=C1N=NN=C1c1nccc2c1=C1C=CCC=C1N=2

$$$$
