3pbq_imipenem_iter3_all_filtered_0
 OpenBabel12042511063D

 19 22  0  0  0  0  0  0  0  0999 V2000
   -1.3400   -1.1210  -16.9400 C   0  0  0  0  0  0  0  0  0  0  0  0
   -3.6610   -1.8210  -16.8510 C   0  0  0  0  0  0  0  0  0  0  0  0
   -2.5940   -1.1630  -17.4350 C   0  0  0  0  0  0  0  0  0  0  0  0
   -8.1340   -3.2210  -16.3930 C   0  0  0  0  0  0  0  0  0  0  0  0
   -4.8470   -1.6660  -17.6730 C   0  0  0  0  0  0  0  0  0  0  0  0
   -6.1410   -3.0610  -15.3530 C   0  0  0  0  0  0  0  0  0  0  0  0
   -6.4840   -0.9950  -19.7820 C   0  0  0  0  0  0  0  0  0  0  0  0
   -4.3510   -1.0040  -18.7650 C   0  0  0  0  0  0  0  0  0  0  0  0
   -9.3340   -3.2070  -17.2520 C   0  0  0  0  0  0  0  0  0  0  0  0
   -3.0340   -0.7670  -18.5350 N   0  0  0  0  0  0  0  0  0  0  0  0
   -7.0160   -3.7230  -14.5740 O   0  0  0  0  0  0  0  0  0  0  0  0
   -3.3970   -2.3900  -15.6640 C   0  0  0  0  0  0  0  0  0  0  0  0
   -5.1260   -0.7110  -19.8700 C   0  0  0  0  0  0  0  0  0  0  0  0
   -6.2340   -2.0150  -17.6350 C   0  0  0  0  0  0  0  0  0  0  0  0
   -1.1070   -1.6460  -15.6730 C   0  0  0  0  0  0  0  0  0  0  0  0
   -6.8230   -2.6950  -16.5410 C   0  0  0  0  0  0  0  0  0  0  0  0
   -8.2160   -3.8050  -15.2350 N   0  0  0  0  0  0  0  0  0  0  0  0
   -7.0140   -1.6490  -18.6690 C   0  0  0  0  0  0  0  0  0  0  0  0
   -2.1660   -2.2800  -15.0730 C   0  0  0  0  0  0  0  0  0  0  0  0
  1 15  1  0  0  0  0
  2 12  1  0  0  0  0
  3  1  2  0  0  0  0
  3  2  1  0  0  0  0
  4 17  2  0  0  0  0
  5 14  1  0  0  0  0
  5  2  2  0  0  0  0
  6 11  1  0  0  0  0
  7 18  1  0  0  0  0
  8 10  2  0  0  0  0
  8  5  1  0  0  0  0
  9  4  1  0  0  0  0
 10  3  1  0  0  0  0
 12 19  2  0  0  0  0
 13  7  2  0  0  0  0
 13  8  1  0  0  0  0
 14 16  1  0  0  0  0
 15 19  1  0  0  0  0
 16  4  1  0  0  0  0
 16  6  2  0  0  0  0
 17 11  1  0  0  0  0
 18 14  2  0  0  0  0
M  END
>  <rank>
3

>  <composite_score>
0.6489

>  <smiles>
Cc1nocc1-c1cccc2c1=C1C=CCC=C1N=2

$$$$
