
     RDKit          3D

 21 23  0  0  0  0  0  0  0  0999 V2000
   -2.1600    0.6580  -20.0810 C   0  0  0  0  0  0  0  0  0  0  0  0
   -3.2910   -0.7840  -18.8250 C   0  0  0  0  0  0  0  0  0  0  0  0
   -2.1420   -0.3940  -18.1430 C   0  0  0  0  0  0  0  0  0  0  0  0
   -8.5930   -0.8180  -18.3220 O   0  0  0  0  0  0  0  0  0  0  0  0
   -3.2810   -0.1030  -20.0840 C   0  0  0  0  0  0  0  0  0  0  0  0
   -9.7260   -4.4620  -17.6240 O   0  0  0  0  0  0  0  0  0  0  0  0
   -7.5890   -1.7630  -18.2650 C   0  0  0  0  0  0  0  0  0  0  0  0
   -8.1270   -3.0830  -18.7110 C   0  0  0  0  0  0  0  0  0  0  0  0
   -8.1590   -3.8430  -15.0400 C   0  0  0  0  0  0  0  0  0  0  0  0
   -4.2150   -1.7350  -18.3090 C   0  0  0  0  0  0  0  0  0  0  0  0
   -3.8530   -2.3700  -17.1250 C   0  0  0  0  0  0  0  0  0  0  0  0
   -8.8410   -3.6730  -17.5750 C   0  0  0  0  0  0  0  0  0  0  0  0
   -2.6210   -2.0760  -16.4770 C   0  0  0  0  0  0  0  0  0  0  0  0
   -9.4850   -2.1070  -15.9200 F   0  0  0  0  0  0  0  0  0  0  0  0
   -7.2150   -2.1630  -16.7000 C   0  0  0  0  0  0  0  0  0  0  0  0
   -8.4250   -2.9570  -16.3130 C   0  0  0  0  0  0  0  0  0  0  0  0
   -1.7660   -1.1000  -17.0280 C   0  0  0  0  0  0  0  0  0  0  0  0
   -1.4530    0.5360  -18.8420 O   0  0  0  0  0  0  0  0  0  0  0  0
   -2.0200   -2.8810  -15.0060 Cl  0  0  0  0  0  0  0  0  0  0  0  0
   -5.3900   -2.0570  -19.0780 N   0  0  0  0  0  0  0  0  0  0  0  0
   -6.5060   -1.2240  -19.0820 C   0  0  0  0  0  0  0  0  0  0  0  0
  1 18  4  0
  2 10  4  0
  2  3  4  0
  3 17  4  0
  5  1  4  0
  5  2  4  0
  6 12  2  0
  7  4  1  0
  7 15  1  0
  8  7  1  0
  8 12  1  0
 10 11  4  0
 11 13  4  0
 12 16  1  0
 13 19  1  0
 15 16  1  0
 16 14  1  0
 16  9  1  0
 17 13  4  0
 18  3  4  0
 20 10  1  0
 21 20  1  0
 21  7  1  0
M  END
$$$$

     RDKit          3D

 21 23  0  0  0  0  0  0  0  0999 V2000
   -2.0070    0.4760  -19.8930 C   0  0  0  0  0  0  0  0  0  0  0  0
   -3.2330   -0.8630  -18.7730 C   0  0  0  0  0  0  0  0  0  0  0  0
   -2.0960   -0.5630  -18.0960 C   0  0  0  0  0  0  0  0  0  0  0  0
   -7.9060   -0.2150  -18.0800 C   0  0  0  0  0  0  0  0  0  0  0  0
   -3.1920   -0.2220  -19.9580 N   0  0  0  0  0  0  0  0  0  0  0  0
   -9.8170   -4.3420  -17.5950 N   0  0  0  0  0  0  0  0  0  0  0  0
   -7.3830   -1.7260  -18.1170 C   0  0  0  0  0  0  0  0  0  0  0  0
   -7.6640   -2.7090  -19.4680 C   0  0  0  0  0  0  0  0  0  0  0  0
   -8.0170   -3.0790  -15.0100 F   0  0  0  0  0  0  0  0  0  0  0  0
   -4.1210   -1.8570  -18.2110 C   0  0  0  0  0  0  0  0  0  0  0  0
   -3.9850   -2.2630  -16.9810 C   0  0  0  0  0  0  0  0  0  0  0  0
   -9.2500   -3.5620  -16.7500 C   0  0  0  0  0  0  0  0  0  0  0  0
   -2.7950   -1.9110  -16.2930 C   0  0  0  0  0  0  0  0  0  0  0  0
   -9.3290   -1.5940  -15.8320 F   0  0  0  0  0  0  0  0  0  0  0  0
   -7.0860   -2.2880  -16.7310 C   0  0  0  0  0  0  0  0  0  0  0  0
   -8.4930   -2.6080  -15.9700 C   0  0  0  0  0  0  0  0  0  0  0  0
   -2.0260   -0.9160  -16.8740 N   0  0  0  0  0  0  0  0  0  0  0  0
   -1.3210    0.3460  -18.7140 N   0  0  0  0  0  0  0  0  0  0  0  0
   -2.4290   -2.4560  -14.8990 C   0  0  0  0  0  0  0  0  0  0  0  0
   -5.2600   -1.9080  -19.0450 N   0  0  0  0  0  0  0  0  0  0  0  0
   -6.5410   -1.9310  -19.2300 C   0  0  0  0  0  0  0  0  0  0  0  0
  1 18  2  0
  2 10  1  0
  2  3  1  0
  3 17  2  0
  5  1  1  0
  5  2  2  0
  6 12  1  0
  7  4  1  0
  7 15  1  0
  8 21  1  0
  8  7  1  0
 10 11  2  0
 11 13  1  0
 12 16  1  0
 13 19  1  0
 15 16  1  0
 16 14  1  0
 16  9  1  0
 17 13  1  0
 18  3  1  0
 20 10  1  0
 21 20  1  0
 21  7  1  0
M  END
$$$$

     RDKit          3D

 21 23  0  0  0  0  0  0  0  0999 V2000
   -2.5950    0.7640  -20.2220 N   0  0  0  0  0  0  0  0  0  0  0  0
   -3.5890   -0.8040  -19.1150 C   0  0  0  0  0  0  0  0  0  0  0  0
   -2.2860   -0.4600  -18.5280 C   0  0  0  0  0  0  0  0  0  0  0  0
   -8.4880   -0.5300  -17.6850 C   0  0  0  0  0  0  0  0  0  0  0  0
   -3.6030   -0.0710  -20.2480 N   0  0  0  0  0  0  0  0  0  0  0  0
   -9.9180   -4.6510  -17.2450 C   0  0  0  0  0  0  0  0  0  0  0  0
   -7.5810   -1.6940  -17.9390 C   0  0  0  0  0  0  0  0  0  0  0  0
   -8.2360   -2.9980  -18.4420 C   0  0  0  0  0  0  0  0  0  0  0  0
   -8.1200   -4.0240  -15.3100 C   0  0  0  0  0  0  0  0  0  0  0  0
   -4.3920   -1.6590  -18.5260 C   0  0  0  0  0  0  0  0  0  0  0  0
   -4.0090   -2.2740  -17.3250 C   0  0  0  0  0  0  0  0  0  0  0  0
   -9.2400   -3.2930  -17.4320 C   0  0  0  0  0  0  0  0  0  0  0  0
   -2.6470   -1.9600  -16.8470 C   0  0  0  0  0  0  0  0  0  0  0  0
   -9.5680   -2.0770  -15.4800 F   0  0  0  0  0  0  0  0  0  0  0  0
   -7.3050   -2.2530  -16.5550 O   0  0  0  0  0  0  0  0  0  0  0  0
   -8.5270   -2.8660  -16.1290 C   0  0  0  0  0  0  0  0  0  0  0  0
   -1.7890   -1.2590  -17.5660 C   0  0  0  0  0  0  0  0  0  0  0  0
   -1.7850    0.4960  -19.1610 N   0  0  0  0  0  0  0  0  0  0  0  0
   -2.1740   -2.6560  -15.2690 Cl  0  0  0  0  0  0  0  0  0  0  0  0
   -5.6610   -2.1090  -19.1230 N   0  0  0  0  0  0  0  0  0  0  0  0
   -6.6420   -1.0870  -18.9470 C   0  0  0  0  0  0  0  0  0  0  0  0
  1 18  1  0
  2  5  1  0
  2  3  1  0
  2 10  1  0
  3 17  1  0
  5  1  2  0
  7  4  1  0
  7 15  1  0
  8  7  1  0
  8 12  1  0
 10 11  2  0
 11 13  1  0
 12  6  1  0
 12 16  1  0
 13 19  1  0
 15 16  1  0
 16 14  1  0
 16  9  1  0
 17 13  2  0
 18  3  2  0
 20 21  1  0
 20 10  1  0
 21  7  1  0
M  END
$$$$

     RDKit          3D

 21 21  0  0  0  0  0  0  0  0999 V2000
   -2.4150    0.5780  -20.0720 C   0  0  0  0  0  0  0  0  0  0  0  0
   -3.7070   -0.7090  -18.7750 C   0  0  0  0  0  0  0  0  0  0  0  0
   -2.5810   -0.4050  -18.1760 C   0  0  0  0  0  0  0  0  0  0  0  0
   -7.8090   -0.2320  -17.8560 C   0  0  0  0  0  0  0  0  0  0  0  0
   -3.8590   -0.1870  -20.2310 S   0  0  0  0  0  0  0  0  0  0  0  0
   -9.9700   -4.4370  -17.4150 C   0  0  0  0  0  0  0  0  0  0  0  0
   -7.3900   -1.4760  -17.9530 C   0  0  0  0  0  0  0  0  0  0  0  0
   -7.3190   -1.8150  -19.2500 C   0  0  0  0  0  0  0  0  0  0  0  0
   -7.3820   -3.9150  -15.2930 O   0  0  0  0  0  0  0  0  0  0  0  0
   -4.2890   -1.8620  -18.2820 C   0  0  0  0  0  0  0  0  0  0  0  0
   -4.1000   -2.3370  -17.1790 C   0  0  0  0  0  0  0  0  0  0  0  0
   -9.2430   -3.4910  -16.7230 N   0  0  0  0  0  0  0  0  0  0  0  0
   -2.9470   -1.9010  -16.5750 C   0  0  0  0  0  0  0  0  0  0  0  0
   -9.8570   -2.0270  -16.3350 C   0  0  0  0  0  0  0  0  0  0  0  0
   -6.9890   -2.1970  -16.7340 C   0  0  0  0  0  0  0  0  0  0  0  0
   -7.8920   -3.3510  -16.5070 C   0  0  0  0  0  0  0  0  0  0  0  0
   -2.2340   -0.9210  -17.0510 C   0  0  0  0  0  0  0  0  0  0  0  0
   -1.9990    0.4170  -18.8610 N   0  0  0  0  0  0  0  0  0  0  0  0
   -2.2420   -2.5470  -15.1070 Cl  0  0  0  0  0  0  0  0  0  0  0  0
   -5.4600   -2.3030  -18.9350 N   0  0  0  0  0  0  0  0  0  0  0  0
   -6.3920   -1.4840  -18.9220 C   0  0  0  0  0  0  0  0  0  0  0  0
  1 18  1  0
  2  5  1  0
  2 10  1  0
  2  3  1  0
  3 17  1  0
  5  1  1  0
  6 12  1  0
  7  4  1  0
  8 21  1  0
  8  7  1  0
 10 20  1  0
 10 11  1  0
 11 13  1  0
 12 16  1  0
 12 14  1  0
 13 19  1  0
 15 16  1  0
 16  9  2  0
 17 13  2  0
 18  3  2  0
 20 21  1  0
M  END
$$$$

     RDKit          3D

 21 23  0  0  0  0  0  0  0  0999 V2000
   -2.4260    0.5270  -19.9640 C   0  0  0  0  0  0  0  0  0  0  0  0
   -3.4180   -0.8760  -18.8020 N   0  0  0  0  0  0  0  0  0  0  0  0
   -2.1530   -0.6560  -18.3670 C   0  0  0  0  0  0  0  0  0  0  0  0
   -8.5420   -0.8210  -17.9990 F   0  0  0  0  0  0  0  0  0  0  0  0
   -3.5730   -0.2210  -19.9370 N   0  0  0  0  0  0  0  0  0  0  0  0
   -9.6600   -4.7540  -17.2140 N   0  0  0  0  0  0  0  0  0  0  0  0
   -7.6500   -1.9060  -17.9840 C   0  0  0  0  0  0  0  0  0  0  0  0
   -8.3350   -3.1420  -18.4890 C   0  0  0  0  0  0  0  0  0  0  0  0
   -8.3010   -3.6460  -14.9200 F   0  0  0  0  0  0  0  0  0  0  0  0
   -4.2450   -1.7580  -18.1920 C   0  0  0  0  0  0  0  0  0  0  0  0
   -3.9220   -2.1420  -16.9190 C   0  0  0  0  0  0  0  0  0  0  0  0
   -8.8940   -3.6970  -17.2150 C   0  0  0  0  0  0  0  0  0  0  0  0
   -2.5500   -1.9530  -16.4580 C   0  0  0  0  0  0  0  0  0  0  0  0
   -9.6890   -2.3490  -15.6000 F   0  0  0  0  0  0  0  0  0  0  0  0
   -7.3320   -2.1290  -16.5100 C   0  0  0  0  0  0  0  0  0  0  0  0
   -8.5230   -2.9290  -16.0410 C   0  0  0  0  0  0  0  0  0  0  0  0
   -1.6740   -1.3540  -17.3000 C   0  0  0  0  0  0  0  0  0  0  0  0
   -1.5790    0.2700  -19.0830 N   0  0  0  0  0  0  0  0  0  0  0  0
   -2.0510   -2.3170  -15.1410 C   0  0  0  0  0  0  0  0  0  0  0  0
   -5.3970   -2.3020  -18.7550 N   0  0  0  0  0  0  0  0  0  0  0  0
   -6.5520   -1.5330  -18.9660 C   0  0  0  0  0  0  0  0  0  0  0  0
  1  5  4  0
  1 18  4  0
  2  3  4  0
  2 10  4  0
  3 17  4  0
  5  2  4  0
  7  4  1  0
  7 15  1  0
  8  7  1  0
  8 12  1  0
 10 11  4  0
 11 13  4  0
 12  6  2  0
 12 16  1  0
 13 19  1  0
 15 16  1  0
 16 14  1  0
 16  9  1  0
 17 13  4  0
 18  3  4  0
 20 10  1  0
 21 20  1  0
 21  7  1  0
M  END
$$$$

     RDKit          3D

 21 23  0  0  0  0  0  0  0  0999 V2000
   -2.3640    0.5610  -19.7790 C   0  0  0  0  0  0  0  0  0  0  0  0
   -3.2650   -0.9750  -18.7060 C   0  0  0  0  0  0  0  0  0  0  0  0
   -2.1030   -0.6480  -18.1040 C   0  0  0  0  0  0  0  0  0  0  0  0
   -8.0470   -0.7920  -17.8390 O   0  0  0  0  0  0  0  0  0  0  0  0
   -3.4330   -0.2110  -19.7860 N   0  0  0  0  0  0  0  0  0  0  0  0
   -9.2570   -4.3260  -17.9330 O   0  0  0  0  0  0  0  0  0  0  0  0
   -7.2750   -1.9580  -18.0600 C   0  0  0  0  0  0  0  0  0  0  0  0
   -7.3460   -2.5250  -19.3090 C   0  0  0  0  0  0  0  0  0  0  0  0
   -8.3890   -4.0550  -15.4910 F   0  0  0  0  0  0  0  0  0  0  0  0
   -4.0900   -1.9870  -18.1620 C   0  0  0  0  0  0  0  0  0  0  0  0
   -3.7480   -2.5250  -16.9220 C   0  0  0  0  0  0  0  0  0  0  0  0
   -9.5400   -3.0930  -17.2520 C   0  0  0  0  0  0  0  0  0  0  0  0
   -2.5770   -2.0740  -16.2910 C   0  0  0  0  0  0  0  0  0  0  0  0
   -9.0120   -2.0000  -15.3120 F   0  0  0  0  0  0  0  0  0  0  0  0
   -7.1900   -2.5170  -16.6340 C   0  0  0  0  0  0  0  0  0  0  0  0
   -8.5490   -2.9670  -16.1190 C   0  0  0  0  0  0  0  0  0  0  0  0
   -1.7610   -1.1700  -16.8920 C   0  0  0  0  0  0  0  0  0  0  0  0
   -1.5260    0.2710  -18.8490 N   0  0  0  0  0  0  0  0  0  0  0  0
   -2.3250   -2.5230  -14.8330 C   0  0  0  0  0  0  0  0  0  0  0  0
   -5.0470   -2.5230  -18.7890 O   0  0  0  0  0  0  0  0  0  0  0  0
   -6.2080   -1.7700  -18.9450 C   0  0  0  0  0  0  0  0  0  0  0  0
  1 18  1  0
  2  5  1  0
  2 10  1  0
  2  3  1  0
  3 17  1  0
  5  1  2  0
  6 12  1  0
  7  4  1  0
  7 15  1  0
  8 21  1  0
  8  7  1  0
 10 11  2  0
 11 13  1  0
 12 16  1  0
 13 19  1  0
 15 16  1  0
 16  9  1  0
 16 14  1  0
 17 13  2  0
 18  3  2  0
 20 10  1  0
 21 20  1  0
 21  7  1  0
M  END
$$$$

     RDKit          3D

 21 23  0  0  0  0  0  0  0  0999 V2000
   -2.5230    0.5470  -19.7940 N   0  0  0  0  0  0  0  0  0  0  0  0
   -3.3260   -0.9730  -18.5470 C   0  0  0  0  0  0  0  0  0  0  0  0
   -2.0880   -0.6560  -18.1590 C   0  0  0  0  0  0  0  0  0  0  0  0
   -8.1910   -0.9680  -18.0080 O   0  0  0  0  0  0  0  0  0  0  0  0
   -3.5900   -0.3110  -19.6880 C   0  0  0  0  0  0  0  0  0  0  0  0
   -9.3300   -4.6780  -17.8890 O   0  0  0  0  0  0  0  0  0  0  0  0
   -7.3870   -2.0140  -18.0090 C   0  0  0  0  0  0  0  0  0  0  0  0
   -7.3540   -2.9720  -19.1060 C   0  0  0  0  0  0  0  0  0  0  0  0
   -8.3370   -4.3040  -15.1210 C   0  0  0  0  0  0  0  0  0  0  0  0
   -4.0090   -1.9530  -17.8530 C   0  0  0  0  0  0  0  0  0  0  0  0
   -3.6930   -2.2640  -16.6290 N   0  0  0  0  0  0  0  0  0  0  0  0
   -9.6570   -3.4570  -17.0630 C   0  0  0  0  0  0  0  0  0  0  0  0
   -2.4230   -1.9800  -16.2360 C   0  0  0  0  0  0  0  0  0  0  0  0
   -9.0640   -1.9360  -15.2670 C   0  0  0  0  0  0  0  0  0  0  0  0
   -7.1950   -2.7570  -16.6470 C   0  0  0  0  0  0  0  0  0  0  0  0
   -8.5190   -3.1090  -16.0830 C   0  0  0  0  0  0  0  0  0  0  0  0
   -1.5870   -1.2420  -17.0530 C   0  0  0  0  0  0  0  0  0  0  0  0
   -1.6410    0.3810  -18.8080 N   0  0  0  0  0  0  0  0  0  0  0  0
   -1.9720   -2.4920  -14.9150 C   0  0  0  0  0  0  0  0  0  0  0  0
   -5.0450   -2.5660  -18.4290 N   0  0  0  0  0  0  0  0  0  0  0  0
   -6.2390   -1.9350  -18.9040 C   0  0  0  0  0  0  0  0  0  0  0  0
  1  5  1  0
  1 18  1  0
  2  3  4  0
  2 10  4  0
  3 17  4  0
  5  2  1  0
  6 12  1  0
  7  4  1  0
  7 15  1  0
  8 21  1  0
  8  7  1  0
 10 11  4  0
 11 13  4  0
 12 16  1  0
 13 19  1  0
 15 16  1  0
 16 14  1  0
 16  9  1  0
 17 13  4  0
 18  3  1  0
 20 10  1  0
 21 20  1  0
 21  7  1  0
M  END
$$$$

     RDKit          3D

 21 22  0  0  0  0  0  0  0  0999 V2000
   -2.0490    0.3420  -20.0660 C   0  0  0  0  0  0  0  0  0  0  0  0
   -3.4090   -0.9990  -18.6620 C   0  0  0  0  0  0  0  0  0  0  0  0
   -2.0280   -0.9600  -18.2360 C   0  0  0  0  0  0  0  0  0  0  0  0
   -8.3730   -0.7240  -17.1410 F   0  0  0  0  0  0  0  0  0  0  0  0
   -3.4870   -0.1780  -19.7870 C   0  0  0  0  0  0  0  0  0  0  0  0
   -9.4130   -4.8350  -17.9240 O   0  0  0  0  0  0  0  0  0  0  0  0
   -7.1830   -1.3050  -17.3310 C   0  0  0  0  0  0  0  0  0  0  0  0
   -7.5340   -2.3150  -19.1710 O   0  0  0  0  0  0  0  0  0  0  0  0
   -8.0070   -4.0920  -15.1800 F   0  0  0  0  0  0  0  0  0  0  0  0
   -4.2960   -1.9160  -18.0590 C   0  0  0  0  0  0  0  0  0  0  0  0
   -4.0110   -2.4380  -16.8810 C   0  0  0  0  0  0  0  0  0  0  0  0
   -9.1100   -3.6180  -17.1620 C   0  0  0  0  0  0  0  0  0  0  0  0
   -2.7510   -2.1070  -16.2230 C   0  0  0  0  0  0  0  0  0  0  0  0
   -9.0280   -2.1280  -15.4130 F   0  0  0  0  0  0  0  0  0  0  0  0
   -6.9790   -2.5050  -16.4900 C   0  0  0  0  0  0  0  0  0  0  0  0
   -8.2820   -3.0560  -16.0560 C   0  0  0  0  0  0  0  0  0  0  0  0
   -1.8530   -1.4470  -16.9870 C   0  0  0  0  0  0  0  0  0  0  0  0
   -1.1800   -0.3040  -19.1130 O   0  0  0  0  0  0  0  0  0  0  0  0
   -2.4470   -2.6100  -14.7370 C   0  0  0  0  0  0  0  0  0  0  0  0
   -5.4110   -2.2790  -18.8630 N   0  0  0  0  0  0  0  0  0  0  0  0
   -6.8180   -1.5730  -18.9140 C   0  0  0  0  0  0  0  0  0  0  0  0
  1  5  4  0
  1 18  4  0
  2  3  4  0
  2 10  4  0
  3 17  4  0
  5  2  4  0
  6 12  1  0
  7  4  1  0
  7 15  1  0
 10 11  4  0
 11 13  4  0
 12 16  1  0
 13 19  1  0
 15 16  1  0
 16 14  1  0
 16  9  1  0
 17 13  4  0
 18  3  4  0
 20 10  1  0
 21  8  1  0
 21 20  1  0
 21  7  1  0
M  END
$$$$

     RDKit          3D

 21 23  0  0  0  0  0  0  0  0999 V2000
   -2.7380    0.6400  -20.0690 N   0  0  0  0  0  0  0  0  0  0  0  0
   -3.5910   -0.8430  -18.9660 C   0  0  0  0  0  0  0  0  0  0  0  0
   -2.2760   -0.5710  -18.5020 C   0  0  0  0  0  0  0  0  0  0  0  0
   -8.7070   -0.5740  -18.0390 C   0  0  0  0  0  0  0  0  0  0  0  0
   -3.7540   -0.0960  -19.9720 N   0  0  0  0  0  0  0  0  0  0  0  0
   -9.4780   -4.6870  -17.8010 N   0  0  0  0  0  0  0  0  0  0  0  0
   -7.6210   -1.7550  -18.1090 C   0  0  0  0  0  0  0  0  0  0  0  0
   -8.2510   -2.9660  -18.5800 O   0  0  0  0  0  0  0  0  0  0  0  0
   -8.0220   -4.0650  -15.3400 F   0  0  0  0  0  0  0  0  0  0  0  0
   -4.3910   -1.8230  -18.3650 C   0  0  0  0  0  0  0  0  0  0  0  0
   -3.8950   -2.3290  -17.1680 C   0  0  0  0  0  0  0  0  0  0  0  0
   -8.7910   -3.5350  -17.5490 C   0  0  0  0  0  0  0  0  0  0  0  0
   -2.6880   -1.9870  -16.6660 C   0  0  0  0  0  0  0  0  0  0  0  0
   -9.5260   -2.3870  -15.6700 F   0  0  0  0  0  0  0  0  0  0  0  0
   -7.2740   -2.1030  -16.5890 C   0  0  0  0  0  0  0  0  0  0  0  0
   -8.4060   -3.0090  -16.1860 C   0  0  0  0  0  0  0  0  0  0  0  0
   -1.7950   -1.2140  -17.4800 C   0  0  0  0  0  0  0  0  0  0  0  0
   -1.8660    0.4560  -19.1780 N   0  0  0  0  0  0  0  0  0  0  0  0
   -2.0900   -2.5120  -15.1140 Cl  0  0  0  0  0  0  0  0  0  0  0  0
   -5.4980   -2.1360  -19.1480 N   0  0  0  0  0  0  0  0  0  0  0  0
   -6.7040   -1.3390  -19.2430 C   0  0  0  0  0  0  0  0  0  0  0  0
  1  5  2  0
  1 18  1  0
  2  5  1  0
  2  3  1  0
  2 10  1  0
  3 17  1  0
  7  4  1  0
  7 15  1  0
  8  7  1  0
  8 12  1  0
 10 11  2  0
 11 13  1  0
 12  6  1  0
 12 16  1  0
 13 19  1  0
 15 16  1  0
 16 14  1  0
 16  9  1  0
 17 13  2  0
 18  3  2  0
 20 10  1  0
 21 20  1  0
 21  7  1  0
M  END
$$$$

     RDKit          3D

 21 23  0  0  0  0  0  0  0  0999 V2000
   -2.3570    0.5860  -19.8490 N   0  0  0  0  0  0  0  0  0  0  0  0
   -3.2810   -0.8830  -18.8060 C   0  0  0  0  0  0  0  0  0  0  0  0
   -2.1330   -0.5960  -18.0520 C   0  0  0  0  0  0  0  0  0  0  0  0
   -7.6280   -0.5880  -17.5500 C   0  0  0  0  0  0  0  0  0  0  0  0
   -3.4380   -0.1370  -19.9410 C   0  0  0  0  0  0  0  0  0  0  0  0
  -10.0950   -4.2530  -17.4890 N   0  0  0  0  0  0  0  0  0  0  0  0
   -7.0800   -2.0340  -17.9310 C   0  0  0  0  0  0  0  0  0  0  0  0
   -7.6130   -2.3710  -19.0010 C   0  0  0  0  0  0  0  0  0  0  0  0
   -8.1960   -3.4250  -14.7870 F   0  0  0  0  0  0  0  0  0  0  0  0
   -4.2370   -1.8190  -18.3040 C   0  0  0  0  0  0  0  0  0  0  0  0
   -3.9890   -2.3150  -17.0380 C   0  0  0  0  0  0  0  0  0  0  0  0
   -9.5090   -3.7170  -16.8630 C   0  0  0  0  0  0  0  0  0  0  0  0
   -2.7460   -2.0060  -16.3670 C   0  0  0  0  0  0  0  0  0  0  0  0
   -9.4330   -1.7370  -15.6660 F   0  0  0  0  0  0  0  0  0  0  0  0
   -7.1830   -2.4640  -16.6860 C   0  0  0  0  0  0  0  0  0  0  0  0
   -8.5540   -2.8040  -15.9510 C   0  0  0  0  0  0  0  0  0  0  0  0
   -1.8530   -1.2050  -16.8950 N   0  0  0  0  0  0  0  0  0  0  0  0
   -1.5340    0.3290  -18.7030 N   0  0  0  0  0  0  0  0  0  0  0  0
   -2.4280   -2.4950  -15.0520 C   0  0  0  0  0  0  0  0  0  0  0  0
   -5.2060   -2.2720  -19.1830 O   0  0  0  0  0  0  0  0  0  0  0  0
   -6.5610   -1.6020  -19.3850 C   0  0  0  0  0  0  0  0  0  0  0  0
  1 18  1  0
  2  5  1  0
  2 10  1  0
  2  3  1  0
  3 17  2  0
  5  1  2  0
  6 12  3  0
  7  4  1  0
  7 15  1  0
  8  7  1  0
 10 20  1  0
 10 11  1  0
 11 13  2  0
 12 16  1  0
 13 19  1  0
 15 16  1  0
 16 14  1  0
 16  9  1  0
 17 13  1  0
 18  3  1  0
 21 20  1  0
 21  8  1  0
 21  7  1  0
M  END
$$$$

     RDKit          3D

 21 23  0  0  0  0  0  0  0  0999 V2000
   -2.7020    0.8360  -20.2090 N   0  0  0  0  0  0  0  0  0  0  0  0
   -3.4340   -0.7710  -18.9720 C   0  0  0  0  0  0  0  0  0  0  0  0
   -2.1920   -0.4490  -18.4630 C   0  0  0  0  0  0  0  0  0  0  0  0
   -8.5230   -0.6530  -17.8270 C   0  0  0  0  0  0  0  0  0  0  0  0
   -3.7030   -0.0020  -20.0880 N   0  0  0  0  0  0  0  0  0  0  0  0
  -10.0790   -4.5010  -17.3210 C   0  0  0  0  0  0  0  0  0  0  0  0
   -7.4920   -1.8430  -17.9400 C   0  0  0  0  0  0  0  0  0  0  0  0
   -8.1240   -3.1660  -18.4150 C   0  0  0  0  0  0  0  0  0  0  0  0
   -8.4230   -3.8550  -15.2910 C   0  0  0  0  0  0  0  0  0  0  0  0
   -4.2260   -1.7750  -18.3590 C   0  0  0  0  0  0  0  0  0  0  0  0
   -3.6910   -2.3670  -17.1910 C   0  0  0  0  0  0  0  0  0  0  0  0
   -9.0310   -3.4870  -17.2930 N   0  0  0  0  0  0  0  0  0  0  0  0
   -2.4310   -2.1350  -16.7550 C   0  0  0  0  0  0  0  0  0  0  0  0
   -9.2860   -2.0480  -15.4190 F   0  0  0  0  0  0  0  0  0  0  0  0
   -7.1230   -2.3320  -16.5220 C   0  0  0  0  0  0  0  0  0  0  0  0
   -8.5820   -2.9060  -16.0840 C   0  0  0  0  0  0  0  0  0  0  0  0
   -1.6620   -1.2310  -17.4480 C   0  0  0  0  0  0  0  0  0  0  0  0
   -1.7200    0.6010  -19.1700 O   0  0  0  0  0  0  0  0  0  0  0  0
   -1.7810   -2.6840  -15.4630 C   0  0  0  0  0  0  0  0  0  0  0  0
   -5.4370   -2.2380  -18.9220 O   0  0  0  0  0  0  0  0  0  0  0  0
   -6.5100   -1.3940  -19.0230 C   0  0  0  0  0  0  0  0  0  0  0  0
  1  5  4  0
  1 18  4  0
  2  3  4  0
  2 10  4  0
  3 17  4  0
  5  2  4  0
  6 12  1  0
  7  4  1  0
  7 15  1  0
  8  7  1  0
  8 12  1  0
 10 11  4  0
 11 13  4  0
 12 16  1  0
 13 19  1  0
 15 16  1  0
 16 14  1  0
 16  9  1  0
 17 13  4  0
 18  3  4  0
 20 10  1  0
 21 20  1  0
 21  7  1  0
M  END
$$$$

     RDKit          3D

 21 23  0  0  0  0  0  0  0  0999 V2000
   -2.5950    0.7440  -19.9330 C   0  0  0  0  0  0  0  0  0  0  0  0
   -3.5260   -0.9350  -18.6630 C   0  0  0  0  0  0  0  0  0  0  0  0
   -2.4240   -0.3070  -17.8950 C   0  0  0  0  0  0  0  0  0  0  0  0
   -7.9410   -0.2270  -17.8180 C   0  0  0  0  0  0  0  0  0  0  0  0
   -3.5250   -0.2550  -19.9190 C   0  0  0  0  0  0  0  0  0  0  0  0
   -9.7630   -4.5400  -17.0460 C   0  0  0  0  0  0  0  0  0  0  0  0
   -7.3190   -1.6300  -17.7800 C   0  0  0  0  0  0  0  0  0  0  0  0
   -7.7520   -2.3200  -18.9890 C   0  0  0  0  0  0  0  0  0  0  0  0
   -7.0490   -4.2640  -15.0280 O   0  0  0  0  0  0  0  0  0  0  0  0
   -4.3000   -1.8320  -18.1030 C   0  0  0  0  0  0  0  0  0  0  0  0
   -3.9860   -2.3900  -16.8140 C   0  0  0  0  0  0  0  0  0  0  0  0
   -9.1740   -3.4300  -16.1750 C   0  0  0  0  0  0  0  0  0  0  0  0
   -2.7200   -1.9870  -16.2720 C   0  0  0  0  0  0  0  0  0  0  0  0
  -10.0700   -2.4310  -15.5420 C   0  0  0  0  0  0  0  0  0  0  0  0
   -6.9840   -2.1670  -16.4690 N   0  0  0  0  0  0  0  0  0  0  0  0
   -7.6840   -3.3560  -15.8580 C   0  0  0  0  0  0  0  0  0  0  0  0
   -2.0700   -0.8460  -16.6430 N   0  0  0  0  0  0  0  0  0  0  0  0
   -1.9310    0.7610  -18.5170 N   0  0  0  0  0  0  0  0  0  0  0  0
   -2.1210   -2.6210  -14.9900 C   0  0  0  0  0  0  0  0  0  0  0  0
   -5.4330   -2.4580  -18.8810 O   0  0  0  0  0  0  0  0  0  0  0  0
   -6.3750   -1.6680  -18.5880 C   0  0  0  0  0  0  0  0  0  0  0  0
  1  5  4  0
  1 18  4  0
  2 10  2  0
  2  3  4  0
  3 17  2  0
  5  2  4  0
  6 12  1  0
  7  4  1  0
  7 15  1  0
  8 21  1  0
  8  7  1  0
 10 11  1  0
 11 13  1  0
 12 16  1  0
 12 14  1  0
 13 19  1  0
 15 16  1  0
 16  9  2  0
 17 13  1  0
 18  3  4  0
 20 10  1  0
 21 20  1  0
 21  7  1  0
M  END
$$$$

     RDKit          3D

 21 23  0  0  0  0  0  0  0  0999 V2000
   -2.4440    0.4960  -19.7510 C   0  0  0  0  0  0  0  0  0  0  0  0
   -3.3550   -0.9370  -18.5690 C   0  0  0  0  0  0  0  0  0  0  0  0
   -2.2270   -0.6110  -18.0490 C   0  0  0  0  0  0  0  0  0  0  0  0
   -7.9980   -0.9680  -18.0140 O   0  0  0  0  0  0  0  0  0  0  0  0
   -3.5020   -0.1180  -19.5450 N   0  0  0  0  0  0  0  0  0  0  0  0
   -8.9490   -4.3120  -18.0220 O   0  0  0  0  0  0  0  0  0  0  0  0
   -7.4050   -1.9690  -18.1080 C   0  0  0  0  0  0  0  0  0  0  0  0
   -7.2220   -2.8070  -19.2570 N   0  0  0  0  0  0  0  0  0  0  0  0
   -8.0180   -4.0700  -15.3260 F   0  0  0  0  0  0  0  0  0  0  0  0
   -4.0710   -1.8510  -17.9900 C   0  0  0  0  0  0  0  0  0  0  0  0
   -3.8230   -2.2670  -16.7420 C   0  0  0  0  0  0  0  0  0  0  0  0
   -9.4860   -3.3750  -17.0050 C   0  0  0  0  0  0  0  0  0  0  0  0
   -2.5940   -1.9220  -16.2010 C   0  0  0  0  0  0  0  0  0  0  0  0
   -8.8410   -1.9840  -15.0970 F   0  0  0  0  0  0  0  0  0  0  0  0
   -7.1620   -2.4590  -16.7070 C   0  0  0  0  0  0  0  0  0  0  0  0
   -8.4170   -2.9070  -15.9800 C   0  0  0  0  0  0  0  0  0  0  0  0
   -1.8010   -1.1380  -16.9260 C   0  0  0  0  0  0  0  0  0  0  0  0
   -1.6370    0.2740  -18.8820 N   0  0  0  0  0  0  0  0  0  0  0  0
   -2.2870   -2.1460  -15.0870 F   0  0  0  0  0  0  0  0  0  0  0  0
   -5.0220   -2.5340  -18.6920 C   0  0  0  0  0  0  0  0  0  0  0  0
   -6.3050   -2.1240  -19.1340 C   0  0  0  0  0  0  0  0  0  0  0  0
  1  5  2  0
  1 18  1  0
  2  5  1  0
  2  3  1  0
  2 10  1  0
  3 17  1  0
  6 12  1  0
  7  4  1  0
  7 15  1  0
  8 21  1  0
  8  7  1  0
 10 11  2  0
 11 13  1  0
 12 16  1  0
 13 19  1  0
 15 16  1  0
 16  9  1  0
 16 14  1  0
 17 13  2  0
 18  3  2  0
 20 10  1  0
 21 20  1  0
 21  7  1  0
M  END
$$$$

     RDKit          3D

 21 23  0  0  0  0  0  0  0  0999 V2000
   -2.4680    0.4870  -19.8100 C   0  0  0  0  0  0  0  0  0  0  0  0
   -3.3410   -1.0020  -18.6440 C   0  0  0  0  0  0  0  0  0  0  0  0
   -2.1210   -0.7090  -18.1510 C   0  0  0  0  0  0  0  0  0  0  0  0
   -8.2090   -0.9240  -17.9170 F   0  0  0  0  0  0  0  0  0  0  0  0
   -3.5470   -0.2340  -19.6500 N   0  0  0  0  0  0  0  0  0  0  0  0
   -9.3070   -4.5760  -18.0090 O   0  0  0  0  0  0  0  0  0  0  0  0
   -7.3570   -1.9530  -17.9740 C   0  0  0  0  0  0  0  0  0  0  0  0
   -7.2850   -2.7610  -19.1600 C   0  0  0  0  0  0  0  0  0  0  0  0
   -8.3940   -4.1920  -15.2750 C   0  0  0  0  0  0  0  0  0  0  0  0
   -4.1040   -1.9150  -17.9840 C   0  0  0  0  0  0  0  0  0  0  0  0
   -3.7570   -2.4430  -16.7550 C   0  0  0  0  0  0  0  0  0  0  0  0
   -9.5300   -3.3610  -17.3240 C   0  0  0  0  0  0  0  0  0  0  0  0
   -2.5770   -1.9770  -16.2960 C   0  0  0  0  0  0  0  0  0  0  0  0
   -9.0420   -1.9160  -15.5410 F   0  0  0  0  0  0  0  0  0  0  0  0
   -7.2490   -2.6370  -16.5780 C   0  0  0  0  0  0  0  0  0  0  0  0
   -8.6310   -3.0030  -16.1600 C   0  0  0  0  0  0  0  0  0  0  0  0
   -1.7940   -1.1490  -17.0370 N   0  0  0  0  0  0  0  0  0  0  0  0
   -1.4940    0.1430  -19.0970 N   0  0  0  0  0  0  0  0  0  0  0  0
   -2.0030   -2.2840  -14.9500 C   0  0  0  0  0  0  0  0  0  0  0  0
   -5.1040   -2.4550  -18.6900 O   0  0  0  0  0  0  0  0  0  0  0  0
   -6.2970   -1.7430  -18.9190 C   0  0  0  0  0  0  0  0  0  0  0  0
  1  5  1  0
  1 18  1  0
  2  5  1  0
  2  3  1  0
  2 10  1  0
  3 17  2  0
  6 12  1  0
  7  4  1  0
  7 15  1  0
  8 21  1  0
  8  7  1  0
 10 11  2  0
 11 13  1  0
 12 16  1  0
 13 19  1  0
 15 16  1  0
 16 14  1  0
 16  9  1  0
 17 13  1  0
 18  3  1  0
 20 10  1  0
 21 20  1  0
 21  7  1  0
M  END
$$$$

     RDKit          3D

 21 23  0  0  0  0  0  0  0  0999 V2000
   -2.0270    0.1820  -20.0360 C   0  0  0  0  0  0  0  0  0  0  0  0
   -3.3220   -1.0560  -18.7750 C   0  0  0  0  0  0  0  0  0  0  0  0
   -2.0980   -0.7800  -18.1910 C   0  0  0  0  0  0  0  0  0  0  0  0
   -8.1640   -0.5340  -17.4780 C   0  0  0  0  0  0  0  0  0  0  0  0
   -3.3250   -0.2420  -20.0150 C   0  0  0  0  0  0  0  0  0  0  0  0
   -9.4390   -4.4410  -17.9500 O   0  0  0  0  0  0  0  0  0  0  0  0
   -7.0390   -1.4710  -17.4510 C   0  0  0  0  0  0  0  0  0  0  0  0
   -7.5630   -2.4420  -19.6480 F   0  0  0  0  0  0  0  0  0  0  0  0
   -8.1630   -3.8720  -15.0600 F   0  0  0  0  0  0  0  0  0  0  0  0
   -4.2900   -2.0010  -18.2220 C   0  0  0  0  0  0  0  0  0  0  0  0
   -4.0090   -2.5610  -16.9690 C   0  0  0  0  0  0  0  0  0  0  0  0
   -9.1770   -3.3760  -17.2600 C   0  0  0  0  0  0  0  0  0  0  0  0
   -2.8780   -2.0980  -16.2540 C   0  0  0  0  0  0  0  0  0  0  0  0
   -9.4750   -2.3420  -16.0890 O   0  0  0  0  0  0  0  0  0  0  0  0
   -7.0720   -2.4870  -16.4980 O   0  0  0  0  0  0  0  0  0  0  0  0
   -8.3070   -3.0160  -16.1680 C   0  0  0  0  0  0  0  0  0  0  0  0
   -1.9860   -1.0570  -16.7280 C   0  0  0  0  0  0  0  0  0  0  0  0
   -1.3100   -0.0900  -18.7960 N   0  0  0  0  0  0  0  0  0  0  0  0
   -2.6930   -2.6270  -14.8540 C   0  0  0  0  0  0  0  0  0  0  0  0
   -5.4660   -2.3260  -18.9970 N   0  0  0  0  0  0  0  0  0  0  0  0
   -6.6920   -2.0540  -18.8280 C   0  0  0  0  0  0  0  0  0  0  0  0
  1  5  4  0
  1 18  4  0
  2 10  1  0
  2  3  4  0
  3 17  1  0
  5  2  4  0
  7  4  1  0
  7 15  1  0
  8 21  1  0
 10 11  2  0
 11 13  1  0
 12  6  1  0
 12 16  1  0
 12 14  1  0
 13 19  1  0
 15 16  1  0
 16 14  1  0
 16  9  1  0
 17 13  1  0
 18  3  4  0
 20 21  2  3
 20 10  1  0
 21  7  1  0
M  END
$$$$

     RDKit          3D

 21 23  0  0  0  0  0  0  0  0999 V2000
   -2.5140    0.5730  -20.1320 C   0  0  0  0  0  0  0  0  0  0  0  0
   -3.4820   -0.8350  -18.8510 C   0  0  0  0  0  0  0  0  0  0  0  0
   -2.2570   -0.5320  -18.3150 C   0  0  0  0  0  0  0  0  0  0  0  0
   -8.4340   -0.4200  -18.2280 C   0  0  0  0  0  0  0  0  0  0  0  0
   -3.6660   -0.1860  -19.9660 N   0  0  0  0  0  0  0  0  0  0  0  0
   -9.4170   -4.6860  -17.7130 O   0  0  0  0  0  0  0  0  0  0  0  0
   -7.6730   -1.7360  -18.1660 C   0  0  0  0  0  0  0  0  0  0  0  0
   -8.3090   -2.9790  -18.6860 N   0  0  0  0  0  0  0  0  0  0  0  0
   -8.2190   -3.7770  -15.1640 C   0  0  0  0  0  0  0  0  0  0  0  0
   -4.2590   -1.8310  -18.3030 C   0  0  0  0  0  0  0  0  0  0  0  0
   -3.8850   -2.4350  -17.1170 C   0  0  0  0  0  0  0  0  0  0  0  0
   -8.8400   -3.6240  -17.5820 C   0  0  0  0  0  0  0  0  0  0  0  0
   -2.6660   -1.9780  -16.4950 C   0  0  0  0  0  0  0  0  0  0  0  0
   -9.7260   -2.0160  -15.9770 C   0  0  0  0  0  0  0  0  0  0  0  0
   -7.3870   -2.0530  -16.7320 C   0  0  0  0  0  0  0  0  0  0  0  0
   -8.6100   -2.8660  -16.3450 C   0  0  0  0  0  0  0  0  0  0  0  0
   -1.9030   -0.9900  -17.0850 C   0  0  0  0  0  0  0  0  0  0  0  0
   -1.6700    0.4220  -19.1140 N   0  0  0  0  0  0  0  0  0  0  0  0
   -2.2230   -2.6110  -14.9240 Cl  0  0  0  0  0  0  0  0  0  0  0  0
   -5.3650   -2.2770  -18.9140 N   0  0  0  0  0  0  0  0  0  0  0  0
   -6.5730   -1.5240  -19.1640 C   0  0  0  0  0  0  0  0  0  0  0  0
  1  5  2  0
  1 18  1  0
  2  5  1  0
  2  3  1  0
  2 10  1  0
  3 17  1  0
  6 12  2  0
  7  4  1  0
  7 15  1  0
  8  7  1  0
  8 12  1  0
 10 11  2  0
 11 13  1  0
 12 16  1  0
 13 19  1  0
 15 16  1  0
 16 14  1  0
 16  9  1  0
 17 13  2  0
 18  3  2  0
 20 10  1  0
 21 20  1  0
 21  7  1  0
M  END
$$$$

     RDKit          3D

 21 23  0  0  0  0  0  0  0  0999 V2000
   -2.6750    0.7920  -20.1700 C   0  0  0  0  0  0  0  0  0  0  0  0
   -3.4490   -0.8770  -19.0270 C   0  0  0  0  0  0  0  0  0  0  0  0
   -2.2530   -0.4880  -18.3840 C   0  0  0  0  0  0  0  0  0  0  0  0
   -8.2690   -0.4660  -17.7460 C   0  0  0  0  0  0  0  0  0  0  0  0
   -3.5800   -0.1750  -20.2260 O   0  0  0  0  0  0  0  0  0  0  0  0
   -9.5710   -4.5260  -17.5850 C   0  0  0  0  0  0  0  0  0  0  0  0
   -7.5780   -1.8250  -17.8010 C   0  0  0  0  0  0  0  0  0  0  0  0
   -8.5030   -2.8070  -18.4800 C   0  0  0  0  0  0  0  0  0  0  0  0
   -8.3260   -4.0540  -15.0280 C   0  0  0  0  0  0  0  0  0  0  0  0
   -4.2100   -1.9320  -18.4660 C   0  0  0  0  0  0  0  0  0  0  0  0
   -3.8450   -2.4190  -17.3470 C   0  0  0  0  0  0  0  0  0  0  0  0
   -9.1870   -3.3110  -17.2470 N   0  0  0  0  0  0  0  0  0  0  0  0
   -2.6120   -2.1080  -16.7340 C   0  0  0  0  0  0  0  0  0  0  0  0
   -9.5070   -1.9800  -15.5700 F   0  0  0  0  0  0  0  0  0  0  0  0
   -7.2400   -2.3190  -16.4890 O   0  0  0  0  0  0  0  0  0  0  0  0
   -8.6210   -2.8530  -15.9960 C   0  0  0  0  0  0  0  0  0  0  0  0
   -1.8150   -1.0760  -17.2570 C   0  0  0  0  0  0  0  0  0  0  0  0
   -1.7240    0.5090  -19.0900 C   0  0  0  0  0  0  0  0  0  0  0  0
   -2.1170   -2.8230  -15.1730 Cl  0  0  0  0  0  0  0  0  0  0  0  0
   -5.4370   -2.3220  -19.0290 N   0  0  0  0  0  0  0  0  0  0  0  0
   -6.3450   -1.4920  -18.6670 C   0  0  0  0  0  0  0  0  0  0  0  0
  1 18  1  0
  2 10  4  0
  2  3  4  0
  3 17  4  0
  5  1  1  0
  5  2  1  0
  6 12  1  0
  7  4  1  0
  7 15  1  0
  8  7  1  0
  8 12  1  0
 10 11  4  0
 11 13  4  0
 12 16  1  0
 13 19  1  0
 15 16  1  0
 16 14  1  0
 16  9  1  0
 17 13  4  0
 18  3  1  0
 20 21  1  0
 20 10  1  0
 21  7  1  0
M  END
$$$$

     RDKit          3D

 21 23  0  0  0  0  0  0  0  0999 V2000
   -2.4990    0.7240  -20.0900 C   0  0  0  0  0  0  0  0  0  0  0  0
   -3.5470   -0.8190  -18.7450 C   0  0  0  0  0  0  0  0  0  0  0  0
   -2.4490   -0.3560  -18.1450 C   0  0  0  0  0  0  0  0  0  0  0  0
   -7.9020   -0.2890  -17.4470 O   0  0  0  0  0  0  0  0  0  0  0  0
   -3.5430   -0.1590  -19.9150 N   0  0  0  0  0  0  0  0  0  0  0  0
   -9.6140   -4.3310  -17.2170 N   0  0  0  0  0  0  0  0  0  0  0  0
   -7.4350   -1.5850  -17.8860 C   0  0  0  0  0  0  0  0  0  0  0  0
   -7.8390   -2.2630  -19.1640 C   0  0  0  0  0  0  0  0  0  0  0  0
   -7.3630   -3.6200  -14.9600 O   0  0  0  0  0  0  0  0  0  0  0  0
   -4.2650   -1.7690  -18.1510 C   0  0  0  0  0  0  0  0  0  0  0  0
   -3.8370   -2.3890  -16.9620 C   0  0  0  0  0  0  0  0  0  0  0  0
   -9.1480   -3.1960  -16.4400 C   0  0  0  0  0  0  0  0  0  0  0  0
   -2.7080   -1.8830  -16.4190 C   0  0  0  0  0  0  0  0  0  0  0  0
   -9.9480   -2.3990  -16.1390 O   0  0  0  0  0  0  0  0  0  0  0  0
   -6.7320   -2.5180  -16.8660 C   0  0  0  0  0  0  0  0  0  0  0  0
   -7.7150   -3.2270  -16.0520 C   0  0  0  0  0  0  0  0  0  0  0  0
   -2.1230   -0.8080  -16.9900 N   0  0  0  0  0  0  0  0  0  0  0  0
   -1.8700    0.6250  -18.8960 N   0  0  0  0  0  0  0  0  0  0  0  0
   -2.0910   -2.4650  -15.1570 C   0  0  0  0  0  0  0  0  0  0  0  0
   -5.3990   -2.2180  -18.6920 O   0  0  0  0  0  0  0  0  0  0  0  0
   -6.5040   -1.5690  -19.0030 C   0  0  0  0  0  0  0  0  0  0  0  0
  1  5  1  0
  1 18  2  0
  2 10  1  0
  2  3  1  0
  3 17  2  0
  5  2  2  0
  6 12  1  0
  7  4  1  0
  7 15  1  0
  8 21  1  0
  8  7  1  0
 10 11  2  0
 11 13  1  0
 12 14  2  0
 12 16  1  0
 13 19  1  0
 15 16  1  0
 16  9  2  0
 17 13  1  0
 18  3  1  0
 20 10  1  0
 21 20  1  0
 21  7  1  0
M  END
$$$$

     RDKit          3D

 21 23  0  0  0  0  0  0  0  0999 V2000
   -2.4550    0.3980  -20.0170 C   0  0  0  0  0  0  0  0  0  0  0  0
   -3.2930   -0.9460  -18.8110 C   0  0  0  0  0  0  0  0  0  0  0  0
   -2.1610   -0.5730  -18.3980 C   0  0  0  0  0  0  0  0  0  0  0  0
   -8.2510   -0.8830  -18.0760 O   0  0  0  0  0  0  0  0  0  0  0  0
   -3.5570   -0.2480  -19.7880 C   0  0  0  0  0  0  0  0  0  0  0  0
   -9.2750   -4.7700  -17.0480 O   0  0  0  0  0  0  0  0  0  0  0  0
   -7.5520   -2.0350  -17.9670 C   0  0  0  0  0  0  0  0  0  0  0  0
   -8.3880   -3.0840  -18.4050 C   0  0  0  0  0  0  0  0  0  0  0  0
   -8.2040   -3.6700  -14.7180 C   0  0  0  0  0  0  0  0  0  0  0  0
   -4.0770   -1.8040  -18.1890 C   0  0  0  0  0  0  0  0  0  0  0  0
   -3.7470   -2.4210  -16.8670 C   0  0  0  0  0  0  0  0  0  0  0  0
   -8.7820   -3.6310  -17.0500 C   0  0  0  0  0  0  0  0  0  0  0  0
   -2.3830   -1.8380  -16.5610 C   0  0  0  0  0  0  0  0  0  0  0  0
   -9.3760   -1.8100  -15.4490 C   0  0  0  0  0  0  0  0  0  0  0  0
   -7.2320   -2.2820  -16.5110 C   0  0  0  0  0  0  0  0  0  0  0  0
   -8.4820   -2.8550  -15.9220 C   0  0  0  0  0  0  0  0  0  0  0  0
   -1.5910   -1.2570  -17.3450 C   0  0  0  0  0  0  0  0  0  0  0  0
   -1.4570    0.0990  -19.3020 N   0  0  0  0  0  0  0  0  0  0  0  0
   -1.9690   -2.5000  -15.2260 C   0  0  0  0  0  0  0  0  0  0  0  0
   -5.2740   -2.2640  -18.6910 N   0  0  0  0  0  0  0  0  0  0  0  0
   -6.3650   -1.8860  -19.0040 C   0  0  0  0  0  0  0  0  0  0  0  0
  1  5  1  0
  1 18  1  0
  2  3  1  0
  2 10  2  0
  3 17  1  0
  5  2  1  0
  7  4  1  0
  7 15  1  0
  8  7  1  0
  8 12  1  0
 10 11  1  0
 11 13  1  0
 12  6  2  0
 12 16  1  0
 13 19  1  0
 15 16  1  0
 16 14  1  0
 16  9  1  0
 17 13  1  0
 18  3  1  0
 20 10  1  0
 21 20  1  0
 21  7  1  0
M  END
$$$$

     RDKit          3D

 21 23  0  0  0  0  0  0  0  0999 V2000
   -2.5170    0.5740  -19.5920 C   0  0  0  0  0  0  0  0  0  0  0  0
   -3.2990   -1.0110  -18.7840 C   0  0  0  0  0  0  0  0  0  0  0  0
   -2.1510   -0.6350  -18.2730 C   0  0  0  0  0  0  0  0  0  0  0  0
   -7.8500   -1.0320  -18.0660 O   0  0  0  0  0  0  0  0  0  0  0  0
   -3.5110   -0.2760  -19.8890 N   0  0  0  0  0  0  0  0  0  0  0  0
   -9.6140   -4.3900  -17.6630 N   0  0  0  0  0  0  0  0  0  0  0  0
   -7.3080   -2.1410  -18.1870 C   0  0  0  0  0  0  0  0  0  0  0  0
   -7.3140   -2.8180  -19.4020 O   0  0  0  0  0  0  0  0  0  0  0  0
   -8.2480   -4.0420  -15.0740 F   0  0  0  0  0  0  0  0  0  0  0  0
   -3.8850   -2.0650  -18.1570 C   0  0  0  0  0  0  0  0  0  0  0  0
   -3.7150   -2.3970  -16.8120 C   0  0  0  0  0  0  0  0  0  0  0  0
   -9.4770   -3.1250  -17.1730 C   0  0  0  0  0  0  0  0  0  0  0  0
   -2.4690   -1.7600  -16.2490 C   0  0  0  0  0  0  0  0  0  0  0  0
   -8.8980   -1.8820  -15.3150 F   0  0  0  0  0  0  0  0  0  0  0  0
   -7.2830   -2.6520  -16.5270 C   0  0  0  0  0  0  0  0  0  0  0  0
   -8.4750   -2.9490  -15.9680 C   0  0  0  0  0  0  0  0  0  0  0  0
   -1.6700   -1.0870  -17.0300 C   0  0  0  0  0  0  0  0  0  0  0  0
   -1.6790    0.4680  -18.9050 N   0  0  0  0  0  0  0  0  0  0  0  0
   -2.1090   -2.0910  -14.8940 C   0  0  0  0  0  0  0  0  0  0  0  0
   -4.9840   -2.4030  -18.5850 C   0  0  0  0  0  0  0  0  0  0  0  0
   -6.2720   -2.0380  -18.9740 C   0  0  0  0  0  0  0  0  0  0  0  0
  1 18  1  0
  2  3  2  0
  2 10  1  0
  3 17  1  0
  5  1  1  0
  5  2  1  0
  6 12  1  0
  7  4  1  0
  7 15  1  0
  8 21  1  0
  8  7  1  0
 10 20  1  0
 10 11  1  0
 11 13  1  0
 12 16  1  0
 13 19  1  0
 15 16  1  0
 16 14  1  0
 16  9  1  0
 17 13  1  0
 18  3  1  0
 21 20  1  0
 21  7  1  0
M  END
$$$$

     RDKit          3D

 21 23  0  0  0  0  0  0  0  0999 V2000
   -2.1490    0.7140  -19.6830 C   0  0  0  0  0  0  0  0  0  0  0  0
   -3.1490   -0.8910  -18.6600 C   0  0  0  0  0  0  0  0  0  0  0  0
   -2.0070   -0.4700  -18.0590 C   0  0  0  0  0  0  0  0  0  0  0  0
   -7.9650   -0.8900  -18.0430 F   0  0  0  0  0  0  0  0  0  0  0  0
   -3.5330   -0.1440  -20.1340 S   0  0  0  0  0  0  0  0  0  0  0  0
   -9.2980   -4.6820  -17.8720 O   0  0  0  0  0  0  0  0  0  0  0  0
   -7.2770   -1.9870  -18.0510 C   0  0  0  0  0  0  0  0  0  0  0  0
   -7.2740   -2.6270  -19.1880 O   0  0  0  0  0  0  0  0  0  0  0  0
   -8.3850   -4.1270  -15.2540 F   0  0  0  0  0  0  0  0  0  0  0  0
   -3.8610   -1.9140  -18.1420 C   0  0  0  0  0  0  0  0  0  0  0  0
   -3.5600   -2.4790  -16.9500 C   0  0  0  0  0  0  0  0  0  0  0  0
   -9.8780   -3.6590  -17.2610 C   0  0  0  0  0  0  0  0  0  0  0  0
   -2.4510   -2.0190  -16.2410 C   0  0  0  0  0  0  0  0  0  0  0  0
   -9.1560   -1.9020  -15.6140 F   0  0  0  0  0  0  0  0  0  0  0  0
   -7.3090   -2.5410  -16.6240 C   0  0  0  0  0  0  0  0  0  0  0  0
   -8.6740   -3.1090  -16.2790 C   0  0  0  0  0  0  0  0  0  0  0  0
   -1.6080   -0.9680  -16.8610 C   0  0  0  0  0  0  0  0  0  0  0  0
   -1.4180    0.4750  -18.6900 C   0  0  0  0  0  0  0  0  0  0  0  0
   -1.9620   -2.3650  -15.1670 N   0  0  0  0  0  0  0  0  0  0  0  0
   -5.0260   -2.2910  -18.8630 N   0  0  0  0  0  0  0  0  0  0  0  0
   -6.2140   -1.9760  -18.9730 C   0  0  0  0  0  0  0  0  0  0  0  0
  1 18  4  0
  2 10  4  0
  2  3  4  0
  3 17  4  0
  5  1  4  0
  5  2  4  0
  6 12  1  0
  7  4  1  0
  7 15  1  0
  8 21  1  0
  8  7  1  0
 10 11  4  0
 11 13  4  0
 12 16  1  0
 13 19  1  0
 15 16  1  0
 16 14  1  0
 16  9  1  0
 17 13  4  0
 18  3  4  0
 20 10  1  0
 21 20  1  0
 21  7  1  0
M  END
$$$$

     RDKit          3D

 21 23  0  0  0  0  0  0  0  0999 V2000
   -2.3760    0.0520  -19.9850 C   0  0  0  0  0  0  0  0  0  0  0  0
   -3.4110   -1.0960  -18.6770 C   0  0  0  0  0  0  0  0  0  0  0  0
   -2.2510   -0.7180  -18.1320 C   0  0  0  0  0  0  0  0  0  0  0  0
   -8.4150   -0.7960  -17.5410 C   0  0  0  0  0  0  0  0  0  0  0  0
   -3.4410   -0.5180  -19.9530 C   0  0  0  0  0  0  0  0  0  0  0  0
  -10.0220   -4.1610  -17.6450 O   0  0  0  0  0  0  0  0  0  0  0  0
   -7.1330   -1.4520  -17.4270 C   0  0  0  0  0  0  0  0  0  0  0  0
   -7.6900   -2.8940  -19.5390 O   0  0  0  0  0  0  0  0  0  0  0  0
   -7.8990   -4.2860  -15.0350 C   0  0  0  0  0  0  0  0  0  0  0  0
   -4.2040   -2.0290  -18.1500 N   0  0  0  0  0  0  0  0  0  0  0  0
   -3.9890   -2.4440  -16.8860 N   0  0  0  0  0  0  0  0  0  0  0  0
   -9.3660   -3.4090  -16.8510 C   0  0  0  0  0  0  0  0  0  0  0  0
   -2.8940   -1.9500  -16.2010 C   0  0  0  0  0  0  0  0  0  0  0  0
   -9.2930   -2.5910  -16.1110 O   0  0  0  0  0  0  0  0  0  0  0  0
   -7.0650   -2.5880  -16.5870 C   0  0  0  0  0  0  0  0  0  0  0  0
   -8.3050   -3.1900  -16.0890 C   0  0  0  0  0  0  0  0  0  0  0  0
   -2.0000   -1.0460  -16.7410 C   0  0  0  0  0  0  0  0  0  0  0  0
   -1.4680   -0.0380  -18.9700 N   0  0  0  0  0  0  0  0  0  0  0  0
   -2.6420   -2.5090  -14.8350 C   0  0  0  0  0  0  0  0  0  0  0  0
   -5.3250   -2.8100  -18.7510 C   0  0  0  0  0  0  0  0  0  0  0  0
   -6.6480   -1.7530  -19.0550 S   0  0  0  0  0  0  0  0  0  0  0  0
  1  5  4  0
  1 18  4  0
  2 10  4  0
  2  3  1  0
  3 17  4  0
  5  2  4  0
  6 12  2  0
  7  4  1  0
  7 15  1  0
 10 11  4  0
 11 13  4  0
 12 14  1  0
 12 16  1  0
 13 19  1  0
 14 16  1  0
 15 16  1  0
 16  9  1  0
 17 13  4  0
 18  3  4  0
 20 10  1  0
 21  8  2  0
 21 20  1  0
 21  7  1  0
M  END
$$$$

     RDKit          3D

 21 23  0  0  0  0  0  0  0  0999 V2000
   -2.1910    0.4850  -20.0090 C   0  0  0  0  0  0  0  0  0  0  0  0
   -3.2550   -0.8660  -18.8190 C   0  0  0  0  0  0  0  0  0  0  0  0
   -2.1480   -0.5150  -18.2000 C   0  0  0  0  0  0  0  0  0  0  0  0
   -8.4500   -0.5180  -17.8980 C   0  0  0  0  0  0  0  0  0  0  0  0
   -3.4780   -0.1340  -19.9850 O   0  0  0  0  0  0  0  0  0  0  0  0
   -9.3250   -4.5940  -17.5290 O   0  0  0  0  0  0  0  0  0  0  0  0
   -7.6160   -1.7370  -17.9400 C   0  0  0  0  0  0  0  0  0  0  0  0
   -8.3810   -2.7790  -18.4600 O   0  0  0  0  0  0  0  0  0  0  0  0
   -8.0110   -3.8260  -14.9610 C   0  0  0  0  0  0  0  0  0  0  0  0
   -4.2110   -1.7130  -18.3430 C   0  0  0  0  0  0  0  0  0  0  0  0
   -3.8850   -2.3520  -17.1900 C   0  0  0  0  0  0  0  0  0  0  0  0
   -8.8350   -3.5440  -17.3830 C   0  0  0  0  0  0  0  0  0  0  0  0
   -2.6720   -2.0770  -16.5020 C   0  0  0  0  0  0  0  0  0  0  0  0
   -9.5970   -2.1230  -15.4990 C   0  0  0  0  0  0  0  0  0  0  0  0
   -7.1990   -2.0810  -16.5030 C   0  0  0  0  0  0  0  0  0  0  0  0
   -8.4370   -2.9030  -16.0820 C   0  0  0  0  0  0  0  0  0  0  0  0
   -1.8360   -1.1440  -17.0200 C   0  0  0  0  0  0  0  0  0  0  0  0
   -1.4480    0.4400  -18.8380 O   0  0  0  0  0  0  0  0  0  0  0  0
   -2.3050   -2.8560  -15.0270 Cl  0  0  0  0  0  0  0  0  0  0  0  0
   -5.3440   -1.8080  -19.0170 N   0  0  0  0  0  0  0  0  0  0  0  0
   -6.4830   -1.4420  -18.8550 C   0  0  0  0  0  0  0  0  0  0  0  0
  1  5  1  0
  1 18  1  0
  2 10  4  0
  2  3  4  0
  3 17  4  0
  5  2  1  0
  6 12  2  0
  7  4  1  0
  7 15  1  0
  8  7  1  0
  8 12  1  0
 10 11  4  0
 11 13  4  0
 12 16  1  0
 13 19  1  0
 15 16  1  0
 16 14  1  0
 16  9  1  0
 17 13  4  0
 18  3  1  0
 20 21  1  0
 20 10  1  0
 21  7  1  0
M  END
$$$$

     RDKit          3D

 21 22  0  0  0  0  0  0  0  0999 V2000
   -2.0380    0.3320  -20.1080 C   0  0  0  0  0  0  0  0  0  0  0  0
   -3.2340   -0.8420  -18.8260 C   0  0  0  0  0  0  0  0  0  0  0  0
   -2.0970   -0.5860  -18.1560 C   0  0  0  0  0  0  0  0  0  0  0  0
   -8.1440   -0.6800  -18.0460 C   0  0  0  0  0  0  0  0  0  0  0  0
   -3.1870   -0.2280  -20.0590 N   0  0  0  0  0  0  0  0  0  0  0  0
   -9.5730   -4.3530  -17.7400 C   0  0  0  0  0  0  0  0  0  0  0  0
   -7.2580   -1.5070  -18.0190 C   0  0  0  0  0  0  0  0  0  0  0  0
   -7.3850   -2.6130  -19.2520 C   0  0  0  0  0  0  0  0  0  0  0  0
   -7.9240   -3.2730  -14.8890 F   0  0  0  0  0  0  0  0  0  0  0  0
   -4.2440   -1.6500  -18.2770 C   0  0  0  0  0  0  0  0  0  0  0  0
   -3.9050   -2.1740  -17.0720 C   0  0  0  0  0  0  0  0  0  0  0  0
   -9.6070   -3.8320  -16.4490 C   0  0  0  0  0  0  0  0  0  0  0  0
   -2.6950   -1.8620  -16.4210 C   0  0  0  0  0  0  0  0  0  0  0  0
   -9.2370   -1.5330  -15.6500 F   0  0  0  0  0  0  0  0  0  0  0  0
   -7.4340   -2.6370  -17.1650 C   0  0  0  0  0  0  0  0  0  0  0  0
   -8.5270   -2.6700  -16.0650 C   0  0  0  0  0  0  0  0  0  0  0  0
   -1.7830   -1.0330  -16.9900 N   0  0  0  0  0  0  0  0  0  0  0  0
   -1.3980    0.2400  -18.9640 N   0  0  0  0  0  0  0  0  0  0  0  0
   -2.3290   -2.3170  -15.0270 C   0  0  0  0  0  0  0  0  0  0  0  0
   -5.4090   -1.9010  -19.1650 N   0  0  0  0  0  0  0  0  0  0  0  0
   -6.6790   -1.9880  -18.8330 C   0  0  0  0  0  0  0  0  0  0  0  0
  1  5  4  0
  1 18  4  0
  2 10  4  0
  2  3  4  0
  3 17  4  0
  4  7  2  0
  5  2  4  0
  6 12  1  0
  7 15  1  0
  8 21  2  0
 10 11  4  0
 11 13  4  0
 12 16  1  0
 13 19  1  0
 15 16  1  0
 16 14  1  0
 16  9  1  0
 17 13  4  0
 18  3  4  0
 20 21  1  0
 20 10  1  0
 21  7  1  0
M  END
$$$$

     RDKit          3D

 21 23  0  0  0  0  0  0  0  0999 V2000
   -2.5930    0.6750  -20.3180 C   0  0  0  0  0  0  0  0  0  0  0  0
   -3.4510   -0.7670  -18.9190 C   0  0  0  0  0  0  0  0  0  0  0  0
   -2.2050   -0.3630  -18.4280 C   0  0  0  0  0  0  0  0  0  0  0  0
   -8.4920   -0.7070  -17.6660 C   0  0  0  0  0  0  0  0  0  0  0  0
   -3.6340   -0.0390  -20.0440 N   0  0  0  0  0  0  0  0  0  0  0  0
   -9.8830   -4.5730  -17.3010 O   0  0  0  0  0  0  0  0  0  0  0  0
   -7.5110   -1.9590  -17.8900 C   0  0  0  0  0  0  0  0  0  0  0  0
   -8.4080   -3.1160  -18.5450 C   0  0  0  0  0  0  0  0  0  0  0  0
   -8.4100   -4.1270  -15.0480 C   0  0  0  0  0  0  0  0  0  0  0  0
   -4.2540   -1.6980  -18.3020 C   0  0  0  0  0  0  0  0  0  0  0  0
   -3.7630   -2.2660  -17.0860 C   0  0  0  0  0  0  0  0  0  0  0  0
   -9.0960   -3.6410  -17.2880 C   0  0  0  0  0  0  0  0  0  0  0  0
   -2.5700   -1.7940  -16.6070 C   0  0  0  0  0  0  0  0  0  0  0  0
   -9.3490   -2.1610  -15.2730 O   0  0  0  0  0  0  0  0  0  0  0  0
   -7.2390   -2.3950  -16.4530 C   0  0  0  0  0  0  0  0  0  0  0  0
   -8.5780   -3.0550  -16.0920 C   0  0  0  0  0  0  0  0  0  0  0  0
   -1.7560   -0.8300  -17.2190 C   0  0  0  0  0  0  0  0  0  0  0  0
   -1.6280    0.5030  -19.3380 O   0  0  0  0  0  0  0  0  0  0  0  0
   -1.9490   -2.4660  -15.0160 Cl  0  0  0  0  0  0  0  0  0  0  0  0
   -5.3400   -2.1860  -18.9710 N   0  0  0  0  0  0  0  0  0  0  0  0
   -6.5700   -1.4310  -19.0030 C   0  0  0  0  0  0  0  0  0  0  0  0
  1  5  4  0
  1 18  4  0
  2  3  4  0
  2 10  4  0
  3 17  4  0
  5  2  4  0
  6 12  2  0
  7  4  1  0
  7 15  1  0
  8  7  1  0
  8 12  1  0
 10 11  4  0
 11 13  4  0
 12 16  1  0
 13 19  1  0
 15 16  1  0
 16 14  1  0
 16  9  1  0
 17 13  4  0
 18  3  4  0
 20 10  1  0
 21 20  1  0
 21  7  1  0
M  END
$$$$

     RDKit          3D

 21 24  0  0  0  0  0  0  0  0999 V2000
   -2.7310    0.8350  -20.0300 N   0  0  0  0  0  0  0  0  0  0  0  0
   -3.5930   -0.7410  -18.7740 C   0  0  0  0  0  0  0  0  0  0  0  0
   -2.5320   -0.1500  -18.1250 C   0  0  0  0  0  0  0  0  0  0  0  0
   -8.2360   -0.2250  -17.6710 C   0  0  0  0  0  0  0  0  0  0  0  0
   -3.6570   -0.1170  -19.9580 N   0  0  0  0  0  0  0  0  0  0  0  0
   -9.7200   -4.4930  -16.6540 O   0  0  0  0  0  0  0  0  0  0  0  0
   -7.5260   -1.5400  -17.9800 C   0  0  0  0  0  0  0  0  0  0  0  0
   -7.7160   -2.2720  -19.2560 C   0  0  0  0  0  0  0  0  0  0  0  0
   -7.6840   -3.8870  -15.3600 O   0  0  0  0  0  0  0  0  0  0  0  0
   -4.2680   -1.7910  -18.1930 C   0  0  0  0  0  0  0  0  0  0  0  0
   -3.8630   -2.3020  -16.9880 C   0  0  0  0  0  0  0  0  0  0  0  0
   -9.2550   -3.1950  -17.0870 C   0  0  0  0  0  0  0  0  0  0  0  0
   -2.6850   -1.7410  -16.3630 C   0  0  0  0  0  0  0  0  0  0  0  0
   -9.1490   -2.2890  -16.1010 N   0  0  0  0  0  0  0  0  0  0  0  0
   -7.0820   -2.2140  -16.7550 C   0  0  0  0  0  0  0  0  0  0  0  0
   -8.1100   -3.1900  -16.3060 C   0  0  0  0  0  0  0  0  0  0  0  0
   -2.1630   -0.5740  -16.8280 C   0  0  0  0  0  0  0  0  0  0  0  0
   -2.0710    0.8270  -18.9070 N   0  0  0  0  0  0  0  0  0  0  0  0
   -2.1060   -2.4020  -15.1840 C   0  0  0  0  0  0  0  0  0  0  0  0
   -5.3280   -2.4270  -18.8740 O   0  0  0  0  0  0  0  0  0  0  0  0
   -6.4530   -1.5740  -19.1330 C   0  0  0  0  0  0  0  0  0  0  0  0
  1  5  2  0
  1 18  1  0
  2  5  1  0
  2 10  1  0
  2  3  1  0
  3 17  1  0
  7  4  1  0
  7 15  1  0
  8 21  1  0
  8  7  1  0
 10 11  2  0
 11 13  1  0
 12  6  1  0
 12 16  1  0
 12 14  1  0
 13 19  1  0
 15 16  1  0
 16 14  1  0
 16  9  1  0
 17 13  2  0
 18  3  2  0
 20 10  1  0
 21 20  1  0
 21  7  1  0
M  END
$$$$

     RDKit          3D

 21 23  0  0  0  0  0  0  0  0999 V2000
   -2.3900    0.7190  -20.0600 C   0  0  0  0  0  0  0  0  0  0  0  0
   -3.5010   -0.8790  -18.9630 C   0  0  0  0  0  0  0  0  0  0  0  0
   -2.2770   -0.5420  -18.4050 C   0  0  0  0  0  0  0  0  0  0  0  0
   -8.5230   -0.8090  -17.8000 C   0  0  0  0  0  0  0  0  0  0  0  0
   -3.6630   -0.1260  -20.2780 S   0  0  0  0  0  0  0  0  0  0  0  0
   -9.6300   -4.5230  -17.2540 O   0  0  0  0  0  0  0  0  0  0  0  0
   -7.5100   -1.9080  -17.9350 C   0  0  0  0  0  0  0  0  0  0  0  0
   -8.1260   -3.0840  -18.4550 C   0  0  0  0  0  0  0  0  0  0  0  0
   -8.0550   -3.7130  -14.9040 C   0  0  0  0  0  0  0  0  0  0  0  0
   -4.2900   -1.8410  -18.3390 C   0  0  0  0  0  0  0  0  0  0  0  0
   -3.9000   -2.4700  -17.1570 C   0  0  0  0  0  0  0  0  0  0  0  0
   -8.6590   -3.7500  -17.2680 C   0  0  0  0  0  0  0  0  0  0  0  0
   -2.6240   -2.0910  -16.5900 C   0  0  0  0  0  0  0  0  0  0  0  0
   -9.4690   -2.1390  -15.8630 F   0  0  0  0  0  0  0  0  0  0  0  0
   -7.2790   -2.2430  -16.4710 C   0  0  0  0  0  0  0  0  0  0  0  0
   -8.4460   -2.9630  -15.9990 C   0  0  0  0  0  0  0  0  0  0  0  0
   -1.9100   -0.9770  -17.1500 C   0  0  0  0  0  0  0  0  0  0  0  0
   -1.6780    0.5700  -19.0160 N   0  0  0  0  0  0  0  0  0  0  0  0
   -2.1670   -2.7720  -15.4840 C   0  0  0  0  0  0  0  0  0  0  0  0
   -5.4160   -2.1580  -19.0670 N   0  0  0  0  0  0  0  0  0  0  0  0
   -6.5070   -1.3080  -18.9060 C   0  0  0  0  0  0  0  0  0  0  0  0
  1 18  1  0
  2  3  4  0
  2 10  4  0
  3 17  4  0
  5  1  1  0
  5  2  1  0
  7  4  1  0
  7 15  1  0
  8  7  1  0
  8 12  1  0
 10 11  4  0
 11 13  4  0
 12  6  2  0
 12 16  1  0
 13 19  1  0
 15 16  1  0
 16 14  1  0
 16  9  1  0
 17 13  4  0
 18  3  1  0
 20 21  1  0
 20 10  1  0
 21  7  1  0
M  END
$$$$

     RDKit          3D

 21 22  0  0  0  0  0  0  0  0999 V2000
   -1.8830    0.6960  -19.7890 C   0  0  0  0  0  0  0  0  0  0  0  0
   -3.2000   -0.9900  -18.6410 C   0  0  0  0  0  0  0  0  0  0  0  0
   -1.9980   -0.5720  -18.0370 C   0  0  0  0  0  0  0  0  0  0  0  0
   -8.2630   -0.9220  -18.0220 O   0  0  0  0  0  0  0  0  0  0  0  0
   -3.3400   -0.1790  -20.0780 S   0  0  0  0  0  0  0  0  0  0  0  0
   -9.2610   -4.0790  -17.9170 N   0  0  0  0  0  0  0  0  0  0  0  0
   -7.4470   -1.8190  -17.6710 C   0  0  0  0  0  0  0  0  0  0  0  0
   -7.1750   -2.5830  -19.7510 O   0  0  0  0  0  0  0  0  0  0  0  0
   -8.2000   -4.1670  -15.2610 F   0  0  0  0  0  0  0  0  0  0  0  0
   -4.0740   -1.8160  -18.0890 C   0  0  0  0  0  0  0  0  0  0  0  0
   -3.7020   -2.3720  -16.9250 C   0  0  0  0  0  0  0  0  0  0  0  0
   -9.5510   -3.2770  -16.8680 C   0  0  0  0  0  0  0  0  0  0  0  0
   -2.5030   -2.0700  -16.2670 C   0  0  0  0  0  0  0  0  0  0  0  0
   -9.0510   -2.0260  -14.9680 F   0  0  0  0  0  0  0  0  0  0  0  0
   -7.2970   -2.3750  -16.4480 C   0  0  0  0  0  0  0  0  0  0  0  0
   -8.5120   -2.9740  -15.8560 C   0  0  0  0  0  0  0  0  0  0  0  0
   -1.7070   -1.0850  -16.8730 C   0  0  0  0  0  0  0  0  0  0  0  0
   -1.2020    0.3700  -18.6450 O   0  0  0  0  0  0  0  0  0  0  0  0
   -2.0870   -2.7470  -14.9940 C   0  0  0  0  0  0  0  0  0  0  0  0
   -5.2520   -2.2660  -18.6060 N   0  0  0  0  0  0  0  0  0  0  0  0
   -6.6040   -2.2120  -18.7560 C   0  0  0  0  0  0  0  0  0  0  0  0
  1 18  1  0
  2 10  4  0
  2  3  4  0
  3 17  4  0
  4  7  2  0
  5  1  1  0
  5  2  1  0
  6 12  1  0
  7 15  1  0
  8 21  2  0
 10 11  4  0
 11 13  4  0
 12 16  1  0
 13 19  1  0
 15 16  1  0
 16  9  1  0
 16 14  1  0
 17 13  4  0
 18  3  1  0
 20 10  1  0
 21 20  1  0
 21  7  1  0
M  END
$$$$

     RDKit          3D

 21 23  0  0  0  0  0  0  0  0999 V2000
   -2.5080    0.6050  -19.9790 C   0  0  0  0  0  0  0  0  0  0  0  0
   -3.1050   -1.1070  -18.7650 N   0  0  0  0  0  0  0  0  0  0  0  0
   -2.0920   -0.5280  -18.2500 C   0  0  0  0  0  0  0  0  0  0  0  0
   -8.0630   -0.9990  -17.6620 F   0  0  0  0  0  0  0  0  0  0  0  0
   -3.3020   -0.4490  -19.8030 C   0  0  0  0  0  0  0  0  0  0  0  0
   -9.5740   -4.5460  -18.0050 O   0  0  0  0  0  0  0  0  0  0  0  0
   -7.2920   -1.8460  -17.9170 C   0  0  0  0  0  0  0  0  0  0  0  0
   -7.3370   -2.6960  -19.2030 C   0  0  0  0  0  0  0  0  0  0  0  0
   -8.1460   -4.3990  -15.3990 C   0  0  0  0  0  0  0  0  0  0  0  0
   -3.8990   -1.9860  -18.1920 C   0  0  0  0  0  0  0  0  0  0  0  0
   -3.6100   -2.3270  -16.8950 C   0  0  0  0  0  0  0  0  0  0  0  0
   -9.4840   -3.2750  -17.2430 C   0  0  0  0  0  0  0  0  0  0  0  0
   -2.4710   -1.7200  -16.2280 C   0  0  0  0  0  0  0  0  0  0  0  0
   -8.8090   -2.2130  -15.2140 F   0  0  0  0  0  0  0  0  0  0  0  0
   -7.0230   -2.7800  -16.7810 C   0  0  0  0  0  0  0  0  0  0  0  0
   -8.4120   -3.1290  -16.1890 C   0  0  0  0  0  0  0  0  0  0  0  0
   -1.6380   -0.8840  -17.0530 O   0  0  0  0  0  0  0  0  0  0  0  0
   -1.4260    0.3610  -19.1250 O   0  0  0  0  0  0  0  0  0  0  0  0
   -1.8350   -2.2030  -15.1450 C   0  0  0  0  0  0  0  0  0  0  0  0
   -4.8630   -2.5860  -18.7100 O   0  0  0  0  0  0  0  0  0  0  0  0
   -6.0860   -1.8170  -18.8530 C   0  0  0  0  0  0  0  0  0  0  0  0
  1  5  1  0
  1 18  1  0
  2  5  1  0
  2  3  1  0
  2 10  1  0
  3 18  1  0
  3 17  1  0
  6 12  1  0
  7  4  1  0
  7 15  1  0
  8 21  1  0
  8  7  1  0
 10 20  1  0
 10 11  1  0
 11 13  2  0
 12 16  1  0
 13 19  1  0
 15 16  1  0
 16  9  1  0
 16 14  1  0
 17 13  1  0
 21 20  1  0
 21  7  1  0
M  END
$$$$

     RDKit          3D

 21 22  0  0  0  0  0  0  0  0999 V2000
   -2.1820    0.4800  -20.0620 C   0  0  0  0  0  0  0  0  0  0  0  0
   -3.3110   -1.0140  -18.7710 C   0  0  0  0  0  0  0  0  0  0  0  0
   -2.0970   -0.7150  -18.1810 C   0  0  0  0  0  0  0  0  0  0  0  0
   -8.1380   -0.5830  -17.2610 O   0  0  0  0  0  0  0  0  0  0  0  0
   -3.4590   -0.3370  -19.9940 C   0  0  0  0  0  0  0  0  0  0  0  0
   -9.2050   -4.5860  -17.6120 O   0  0  0  0  0  0  0  0  0  0  0  0
   -6.9720   -1.4330  -17.5740 C   0  0  0  0  0  0  0  0  0  0  0  0
   -7.6830   -2.6640  -19.4700 C   0  0  0  0  0  0  0  0  0  0  0  0
   -8.2180   -3.8280  -15.0010 F   0  0  0  0  0  0  0  0  0  0  0  0
   -4.2080   -1.9440  -18.2470 C   0  0  0  0  0  0  0  0  0  0  0  0
   -3.8900   -2.4310  -16.9600 C   0  0  0  0  0  0  0  0  0  0  0  0
   -9.5920   -3.4520  -16.8580 C   0  0  0  0  0  0  0  0  0  0  0  0
   -2.8060   -2.0140  -16.2880 C   0  0  0  0  0  0  0  0  0  0  0  0
   -9.0290   -1.7650  -15.4890 F   0  0  0  0  0  0  0  0  0  0  0  0
   -7.1370   -2.6520  -16.6050 C   0  0  0  0  0  0  0  0  0  0  0  0
   -8.4190   -2.9380  -15.9720 C   0  0  0  0  0  0  0  0  0  0  0  0
   -1.8900   -1.1180  -16.8570 C   0  0  0  0  0  0  0  0  0  0  0  0
   -1.1870   -0.0860  -19.0630 C   0  0  0  0  0  0  0  0  0  0  0  0
   -2.5530   -2.5210  -14.8480 C   0  0  0  0  0  0  0  0  0  0  0  0
   -5.3360   -2.3790  -18.9570 O   0  0  0  0  0  0  0  0  0  0  0  0
   -6.6260   -1.7450  -18.9460 C   0  0  0  0  0  0  0  0  0  0  0  0
  1  5  1  0
  1 18  1  0
  2 10  4  0
  2  3  4  0
  3 17  4  0
  5  2  1  0
  6 12  1  0
  7  4  1  0
  7 15  1  0
 10 11  4  0
 11 13  4  0
 12 16  1  0
 13 19  1  0
 15 16  1  0
 16 14  1  0
 16  9  1  0
 17 13  4  0
 18  3  1  0
 20 21  1  0
 20 10  1  0
 21  8  1  0
 21  7  1  0
M  END
$$$$
