
     RDKit          3D

 19 22  0  0  0  0  0  0  0  0999 V2000
   -1.1560   -1.5090  -17.6100 C   0  0  0  0  0  0  0  0  0  0  0  0
   -3.5380   -1.8480  -17.1420 C   0  0  0  0  0  0  0  0  0  0  0  0
   -2.5200   -1.4660  -17.9120 C   0  0  0  0  0  0  0  0  0  0  0  0
   -8.3460   -2.9330  -16.5630 C   0  0  0  0  0  0  0  0  0  0  0  0
   -4.8580   -1.6310  -17.8400 C   0  0  0  0  0  0  0  0  0  0  0  0
   -6.3500   -3.3930  -15.5310 N   0  0  0  0  0  0  0  0  0  0  0  0
   -6.7270   -0.9060  -19.7070 C   0  0  0  0  0  0  0  0  0  0  0  0
   -4.4630   -1.0190  -18.9300 N   0  0  0  0  0  0  0  0  0  0  0  0
   -9.3840   -2.4810  -17.4560 C   0  0  0  0  0  0  0  0  0  0  0  0
   -3.0640   -0.8880  -19.0340 N   0  0  0  0  0  0  0  0  0  0  0  0
   -7.3760   -4.0910  -14.8470 N   0  0  0  0  0  0  0  0  0  0  0  0
   -3.2100   -2.4190  -15.8910 C   0  0  0  0  0  0  0  0  0  0  0  0
   -5.3480   -0.6230  -19.9670 C   0  0  0  0  0  0  0  0  0  0  0  0
   -6.2200   -1.9730  -17.6690 C   0  0  0  0  0  0  0  0  0  0  0  0
   -0.8060   -2.2080  -16.4020 C   0  0  0  0  0  0  0  0  0  0  0  0
   -6.9030   -2.6940  -16.5640 C   0  0  0  0  0  0  0  0  0  0  0  0
   -8.5820   -3.8490  -15.4990 N   0  0  0  0  0  0  0  0  0  0  0  0
   -7.1340   -1.5810  -18.6720 N   0  0  0  0  0  0  0  0  0  0  0  0
   -1.8480   -2.6030  -15.5720 C   0  0  0  0  0  0  0  0  0  0  0  0
  1 15  4  0
  2 12  4  0
  3  1  4  0
  3  2  4  0
  4 17  4  0
  5 14  4  0
  5  2  4  0
  6 11  4  0
  7 18  4  0
  8  5  4  0
  9  4  1  0
 10  8  4  0
 10  3  4  0
 12 19  4  0
 13  7  4  0
 13  8  4  0
 14 16  1  0
 15 19  4  0
 16  4  4  0
 16  6  4  0
 17 11  4  0
 18 14  4  0
M  END
$$$$

     RDKit          3D

 19 22  0  0  0  0  0  0  0  0999 V2000
   -1.3390   -1.0170  -17.2300 C   0  0  0  0  0  0  0  0  0  0  0  0
   -3.6420   -1.8330  -17.0610 C   0  0  0  0  0  0  0  0  0  0  0  0
   -2.6500   -1.1530  -17.7530 C   0  0  0  0  0  0  0  0  0  0  0  0
   -8.1910   -3.2270  -16.1730 C   0  0  0  0  0  0  0  0  0  0  0  0
   -4.9080   -1.6950  -17.7730 C   0  0  0  0  0  0  0  0  0  0  0  0
   -6.1270   -3.3680  -15.3690 N   0  0  0  0  0  0  0  0  0  0  0  0
   -6.8530   -0.9350  -19.6280 C   0  0  0  0  0  0  0  0  0  0  0  0
   -4.5680   -0.8930  -18.9530 C   0  0  0  0  0  0  0  0  0  0  0  0
   -9.4090   -2.9180  -16.9510 C   0  0  0  0  0  0  0  0  0  0  0  0
   -3.2010   -0.6520  -18.9070 N   0  0  0  0  0  0  0  0  0  0  0  0
   -6.8910   -4.0350  -14.5390 N   0  0  0  0  0  0  0  0  0  0  0  0
   -3.3390   -2.5610  -15.8730 C   0  0  0  0  0  0  0  0  0  0  0  0
   -5.5520   -0.5690  -19.8910 C   0  0  0  0  0  0  0  0  0  0  0  0
   -6.2650   -2.0640  -17.6070 C   0  0  0  0  0  0  0  0  0  0  0  0
   -1.0480   -1.7470  -16.0100 C   0  0  0  0  0  0  0  0  0  0  0  0
   -6.8190   -2.9000  -16.4330 C   0  0  0  0  0  0  0  0  0  0  0  0
   -8.1530   -3.9600  -15.0400 N   0  0  0  0  0  0  0  0  0  0  0  0
   -7.2100   -1.6640  -18.5350 C   0  0  0  0  0  0  0  0  0  0  0  0
   -2.0250   -2.4580  -15.4040 C   0  0  0  0  0  0  0  0  0  0  0  0
  1 15  1  0
  2 12  1  0
  3  1  2  0
  3  2  1  0
  4 17  4  0
  5 14  4  0
  5  2  2  0
  6 11  4  0
  7 18  4  0
  8 10  2  0
  8  5  4  0
  9  4  1  0
 10  3  1  0
 12 19  2  0
 13  7  4  0
 13  8  4  0
 14 16  1  0
 15 19  1  0
 16  4  4  0
 16  6  4  0
 17 11  4  0
 18 14  4  0
M  END
$$$$

     RDKit          3D

 19 22  0  0  0  0  0  0  0  0999 V2000
   -1.4650   -1.0190  -17.6880 C   0  0  0  0  0  0  0  0  0  0  0  0
   -3.6470   -1.8240  -17.3130 C   0  0  0  0  0  0  0  0  0  0  0  0
   -2.7500   -1.2080  -18.1040 C   0  0  0  0  0  0  0  0  0  0  0  0
   -8.2100   -3.2630  -16.3290 C   0  0  0  0  0  0  0  0  0  0  0  0
   -4.9650   -1.6960  -17.8910 C   0  0  0  0  0  0  0  0  0  0  0  0
   -6.2030   -3.3480  -15.5310 C   0  0  0  0  0  0  0  0  0  0  0  0
   -6.9520   -0.9600  -19.7680 C   0  0  0  0  0  0  0  0  0  0  0  0
   -4.7000   -0.9840  -19.0850 C   0  0  0  0  0  0  0  0  0  0  0  0
   -9.5180   -3.0350  -16.9800 C   0  0  0  0  0  0  0  0  0  0  0  0
   -3.4000   -0.7560  -19.1720 N   0  0  0  0  0  0  0  0  0  0  0  0
   -7.0200   -3.9860  -14.7030 O   0  0  0  0  0  0  0  0  0  0  0  0
   -3.2960   -2.4450  -16.1100 C   0  0  0  0  0  0  0  0  0  0  0  0
   -5.6170   -0.6680  -20.0360 C   0  0  0  0  0  0  0  0  0  0  0  0
   -6.3300   -2.0270  -17.6030 C   0  0  0  0  0  0  0  0  0  0  0  0
   -1.0000   -1.7140  -16.4930 C   0  0  0  0  0  0  0  0  0  0  0  0
   -6.9690   -2.8590  -16.5120 C   0  0  0  0  0  0  0  0  0  0  0  0
   -8.2560   -4.0430  -15.1420 N   0  0  0  0  0  0  0  0  0  0  0  0
   -7.2670   -1.6080  -18.5510 C   0  0  0  0  0  0  0  0  0  0  0  0
   -1.9530   -2.3760  -15.7660 C   0  0  0  0  0  0  0  0  0  0  0  0
  1 15  1  0
  2 12  1  0
  3  1  2  0
  3  2  1  0
  4 17  4  0
  5 14  4  0
  5  2  2  0
  6 11  4  0
  7 18  4  0
  8  5  4  0
  9  4  1  0
 10  8  2  0
 10  3  1  0
 12 19  2  0
 13  7  4  0
 13  8  4  0
 14 16  1  0
 15 19  1  0
 16  4  4  0
 16  6  4  0
 17 11  4  0
 18 14  4  0
M  END
$$$$

     RDKit          3D

 19 22  0  0  0  0  0  0  0  0999 V2000
   -1.0880   -1.5680  -17.8700 C   0  0  0  0  0  0  0  0  0  0  0  0
   -3.5580   -2.0780  -17.2460 C   0  0  0  0  0  0  0  0  0  0  0  0
   -2.5700   -1.7260  -18.0290 C   0  0  0  0  0  0  0  0  0  0  0  0
   -8.2780   -3.2280  -16.3150 C   0  0  0  0  0  0  0  0  0  0  0  0
   -4.9060   -1.8940  -17.8630 C   0  0  0  0  0  0  0  0  0  0  0  0
   -6.2510   -3.5250  -15.5470 N   0  0  0  0  0  0  0  0  0  0  0  0
   -6.7430   -0.9960  -19.6780 C   0  0  0  0  0  0  0  0  0  0  0  0
   -4.5330   -1.2060  -19.0780 C   0  0  0  0  0  0  0  0  0  0  0  0
   -9.2620   -2.7980  -17.1240 N   0  0  0  0  0  0  0  0  0  0  0  0
   -3.1010   -1.0490  -19.1470 N   0  0  0  0  0  0  0  0  0  0  0  0
   -7.1150   -4.1470  -14.8290 N   0  0  0  0  0  0  0  0  0  0  0  0
   -3.3130   -2.6250  -15.8910 C   0  0  0  0  0  0  0  0  0  0  0  0
   -5.4870   -0.8180  -19.8710 N   0  0  0  0  0  0  0  0  0  0  0  0
   -6.2160   -2.2050  -17.5280 C   0  0  0  0  0  0  0  0  0  0  0  0
   -0.8940   -1.6350  -16.3080 C   0  0  0  0  0  0  0  0  0  0  0  0
   -6.8800   -2.8940  -16.4840 C   0  0  0  0  0  0  0  0  0  0  0  0
   -8.3980   -3.9020  -15.1900 N   0  0  0  0  0  0  0  0  0  0  0  0
   -7.1620   -1.6980  -18.5290 C   0  0  0  0  0  0  0  0  0  0  0  0
   -1.7850   -2.7610  -15.7520 C   0  0  0  0  0  0  0  0  0  0  0  0
  1 15  1  0
  2 12  1  0
  3  1  1  0
  3  2  2  0
  4 17  4  0
  5 14  2  0
  5  2  1  0
  6 11  4  0
  7 18  1  0
  8  5  1  0
  9  4  1  0
 10  8  2  0
 10  3  1  0
 12 19  1  0
 13  7  2  0
 13  8  1  0
 14 16  1  0
 15 19  1  0
 16  4  4  0
 16  6  4  0
 17 11  4  0
 18 14  1  0
M  END
$$$$

     RDKit          3D

 19 22  0  0  0  0  0  0  0  0999 V2000
   -1.3060   -1.2310  -17.7300 C   0  0  0  0  0  0  0  0  0  0  0  0
   -3.6890   -1.7850  -17.2480 C   0  0  0  0  0  0  0  0  0  0  0  0
   -2.7360   -1.2990  -18.1540 C   0  0  0  0  0  0  0  0  0  0  0  0
   -8.1610   -3.3150  -16.3380 C   0  0  0  0  0  0  0  0  0  0  0  0
   -4.9800   -1.6620  -17.8970 C   0  0  0  0  0  0  0  0  0  0  0  0
   -6.0650   -3.0210  -15.4470 N   0  0  0  0  0  0  0  0  0  0  0  0
   -6.9170   -0.8550  -19.7980 C   0  0  0  0  0  0  0  0  0  0  0  0
   -4.6370   -1.0560  -19.1270 C   0  0  0  0  0  0  0  0  0  0  0  0
   -9.2900   -3.4350  -17.1010 O   0  0  0  0  0  0  0  0  0  0  0  0
   -3.3560   -0.8740  -19.2600 N   0  0  0  0  0  0  0  0  0  0  0  0
   -6.7570   -3.7990  -14.6490 N   0  0  0  0  0  0  0  0  0  0  0  0
   -3.2990   -2.2670  -15.9080 C   0  0  0  0  0  0  0  0  0  0  0  0
   -5.6020   -0.6370  -20.1170 C   0  0  0  0  0  0  0  0  0  0  0  0
   -6.3530   -1.9450  -17.6840 C   0  0  0  0  0  0  0  0  0  0  0  0
   -0.9780   -1.7060  -16.5260 C   0  0  0  0  0  0  0  0  0  0  0  0
   -6.8150   -2.6800  -16.4820 C   0  0  0  0  0  0  0  0  0  0  0  0
   -8.1000   -3.9230  -15.1440 N   0  0  0  0  0  0  0  0  0  0  0  0
   -7.2850   -1.4690  -18.6540 C   0  0  0  0  0  0  0  0  0  0  0  0
   -1.9220   -2.2200  -15.6340 C   0  0  0  0  0  0  0  0  0  0  0  0
  1 15  1  0
  2 12  1  0
  3  1  2  0
  3  2  1  0
  4 17  1  0
  5 14  4  0
  5  2  2  0
  6 11  1  0
  7 18  4  0
  8  5  4  0
  9  4  2  0
 10  8  2  0
 10  3  1  0
 12 19  2  0
 13  7  4  0
 13  8  4  0
 14 16  1  0
 15 19  1  0
 16  4  1  0
 16  6  2  0
 17 11  2  0
 18 14  4  0
M  END
$$$$

     RDKit          3D

 19 22  0  0  0  0  0  0  0  0999 V2000
   -1.2950   -1.1450  -17.3160 C   0  0  0  0  0  0  0  0  0  0  0  0
   -3.7100   -1.9100  -16.9520 C   0  0  0  0  0  0  0  0  0  0  0  0
   -2.6070   -1.2610  -17.7520 C   0  0  0  0  0  0  0  0  0  0  0  0
   -8.3080   -3.2100  -16.1480 C   0  0  0  0  0  0  0  0  0  0  0  0
   -4.9300   -1.8080  -17.7430 C   0  0  0  0  0  0  0  0  0  0  0  0
   -6.2200   -3.5170  -15.3000 C   0  0  0  0  0  0  0  0  0  0  0  0
   -6.8840   -0.9260  -19.7200 C   0  0  0  0  0  0  0  0  0  0  0  0
   -4.5600   -1.1090  -18.9720 C   0  0  0  0  0  0  0  0  0  0  0  0
   -9.4110   -3.0350  -16.9670 N   0  0  0  0  0  0  0  0  0  0  0  0
   -3.1520   -0.8940  -18.9880 O   0  0  0  0  0  0  0  0  0  0  0  0
   -7.1810   -4.0310  -14.4310 O   0  0  0  0  0  0  0  0  0  0  0  0
   -3.2820   -2.4730  -15.6410 C   0  0  0  0  0  0  0  0  0  0  0  0
   -5.5000   -0.6680  -19.9920 C   0  0  0  0  0  0  0  0  0  0  0  0
   -6.3820   -2.1200  -17.5520 C   0  0  0  0  0  0  0  0  0  0  0  0
   -0.9410   -1.4930  -15.9140 C   0  0  0  0  0  0  0  0  0  0  0  0
   -6.9210   -2.9180  -16.4440 C   0  0  0  0  0  0  0  0  0  0  0  0
   -8.4370   -3.8130  -14.9600 N   0  0  0  0  0  0  0  0  0  0  0  0
   -7.2860   -1.6030  -18.5690 C   0  0  0  0  0  0  0  0  0  0  0  0
   -1.9820   -2.2200  -15.1000 C   0  0  0  0  0  0  0  0  0  0  0  0
  1 15  4  0
  2 12  4  0
  3  1  4  0
  3  2  4  0
  4 17  4  0
  5 14  4  0
  5  2  4  0
  6 11  4  0
  7 18  4  0
  8  5  4  0
  9  4  1  0
 10  8  4  0
 10  3  4  0
 12 19  4  0
 13  7  4  0
 13  8  4  0
 14 16  1  0
 15 19  4  0
 16  4  4  0
 16  6  4  0
 17 11  4  0
 18 14  4  0
M  END
$$$$

     RDKit          3D

 19 22  0  0  0  0  0  0  0  0999 V2000
   -1.3800   -1.1360  -17.4760 C   0  0  0  0  0  0  0  0  0  0  0  0
   -3.7090   -1.9020  -17.1000 C   0  0  0  0  0  0  0  0  0  0  0  0
   -2.7320   -1.0990  -17.8260 C   0  0  0  0  0  0  0  0  0  0  0  0
   -8.3580   -3.1180  -16.3750 C   0  0  0  0  0  0  0  0  0  0  0  0
   -5.0080   -1.7320  -17.8710 C   0  0  0  0  0  0  0  0  0  0  0  0
   -6.2980   -3.2180  -15.5100 N   0  0  0  0  0  0  0  0  0  0  0  0
   -6.9520   -0.9410  -19.6890 C   0  0  0  0  0  0  0  0  0  0  0  0
   -4.6340   -0.9990  -19.0270 C   0  0  0  0  0  0  0  0  0  0  0  0
   -9.3750   -2.7980  -17.1170 N   0  0  0  0  0  0  0  0  0  0  0  0
   -3.2930   -0.7590  -19.0710 N   0  0  0  0  0  0  0  0  0  0  0  0
   -7.1420   -3.9310  -14.6360 N   0  0  0  0  0  0  0  0  0  0  0  0
   -3.3020   -2.6020  -16.0510 C   0  0  0  0  0  0  0  0  0  0  0  0
   -5.5620   -0.7070  -19.9470 C   0  0  0  0  0  0  0  0  0  0  0  0
   -6.3890   -1.9770  -17.7260 C   0  0  0  0  0  0  0  0  0  0  0  0
   -1.0040   -1.8550  -16.3640 C   0  0  0  0  0  0  0  0  0  0  0  0
   -6.9010   -2.7470  -16.5490 C   0  0  0  0  0  0  0  0  0  0  0  0
   -8.5020   -3.8840  -15.2280 N   0  0  0  0  0  0  0  0  0  0  0  0
   -7.2820   -1.5080  -18.6160 N   0  0  0  0  0  0  0  0  0  0  0  0
   -1.9930   -2.6040  -15.6800 C   0  0  0  0  0  0  0  0  0  0  0  0
  1 15  4  0
  2 12  4  0
  3  1  4  0
  3  2  4  0
  4 17  4  0
  5 14  4  0
  5  2  4  0
  6 11  4  0
  7 18  4  0
  8  5  4  0
  9  4  1  0
 10  8  4  0
 10  3  4  0
 12 19  4  0
 13  7  4  0
 13  8  4  0
 14 16  1  0
 15 19  4  0
 16  4  4  0
 16  6  4  0
 17 11  4  0
 18 14  4  0
M  END
$$$$

     RDKit          3D

 19 22  0  0  0  0  0  0  0  0999 V2000
   -1.1540   -1.3480  -17.4180 C   0  0  0  0  0  0  0  0  0  0  0  0
   -3.5010   -1.8960  -17.0090 C   0  0  0  0  0  0  0  0  0  0  0  0
   -2.5180   -1.3030  -17.8350 C   0  0  0  0  0  0  0  0  0  0  0  0
   -8.1800   -2.9940  -16.1450 C   0  0  0  0  0  0  0  0  0  0  0  0
   -4.8500   -1.6390  -17.8610 C   0  0  0  0  0  0  0  0  0  0  0  0
   -5.9860   -3.4200  -15.4800 C   0  0  0  0  0  0  0  0  0  0  0  0
   -6.7440   -0.8360  -19.7090 C   0  0  0  0  0  0  0  0  0  0  0  0
   -4.3890   -0.9930  -18.9890 C   0  0  0  0  0  0  0  0  0  0  0  0
   -9.2650   -2.5940  -16.6640 O   0  0  0  0  0  0  0  0  0  0  0  0
   -3.0600   -0.8710  -18.9920 N   0  0  0  0  0  0  0  0  0  0  0  0
   -6.9600   -4.1960  -14.8060 N   0  0  0  0  0  0  0  0  0  0  0  0
   -3.2210   -2.4430  -15.7590 C   0  0  0  0  0  0  0  0  0  0  0  0
   -5.3950   -0.5750  -19.9410 C   0  0  0  0  0  0  0  0  0  0  0  0
   -6.2320   -1.9390  -17.5900 C   0  0  0  0  0  0  0  0  0  0  0  0
   -0.8430   -1.8810  -16.1210 C   0  0  0  0  0  0  0  0  0  0  0  0
   -6.7810   -2.7420  -16.5290 C   0  0  0  0  0  0  0  0  0  0  0  0
   -8.2270   -3.8950  -15.0970 N   0  0  0  0  0  0  0  0  0  0  0  0
   -7.1130   -1.4620  -18.5920 C   0  0  0  0  0  0  0  0  0  0  0  0
   -1.8970   -2.4140  -15.3270 C   0  0  0  0  0  0  0  0  0  0  0  0
  1 15  1  0
  2 12  1  0
  3  1  2  0
  3  2  1  0
  4 17  1  0
  5 14  4  0
  5  2  2  0
  6 11  1  0
  7 18  4  0
  8  5  4  0
  9  4  2  0
 10  8  2  0
 10  3  1  0
 12 19  2  0
 13  7  4  0
 13  8  4  0
 15 19  1  0
 16 14  1  0
 16  4  1  0
 16  6  1  0
 17 11  1  0
 18 14  4  0
M  END
$$$$

     RDKit          3D

 19 22  0  0  0  0  0  0  0  0999 V2000
   -1.1800   -1.6450  -17.7860 C   0  0  0  0  0  0  0  0  0  0  0  0
   -3.5950   -2.0190  -17.2710 C   0  0  0  0  0  0  0  0  0  0  0  0
   -2.5910   -1.5600  -18.1310 C   0  0  0  0  0  0  0  0  0  0  0  0
   -8.3050   -2.8650  -16.5960 C   0  0  0  0  0  0  0  0  0  0  0  0
   -4.8160   -1.7480  -17.9250 C   0  0  0  0  0  0  0  0  0  0  0  0
   -6.1960   -3.2370  -15.6490 N   0  0  0  0  0  0  0  0  0  0  0  0
   -6.6580   -0.8620  -19.7250 C   0  0  0  0  0  0  0  0  0  0  0  0
   -4.5380   -1.0910  -19.1430 C   0  0  0  0  0  0  0  0  0  0  0  0
   -9.4480   -2.3750  -17.2920 C   0  0  0  0  0  0  0  0  0  0  0  0
   -3.1670   -1.0580  -19.2710 N   0  0  0  0  0  0  0  0  0  0  0  0
   -7.1590   -3.8940  -15.0230 N   0  0  0  0  0  0  0  0  0  0  0  0
   -3.2720   -2.3490  -15.9710 C   0  0  0  0  0  0  0  0  0  0  0  0
   -5.4350   -0.7180  -19.9820 N   0  0  0  0  0  0  0  0  0  0  0  0
   -6.2270   -1.9260  -17.7830 C   0  0  0  0  0  0  0  0  0  0  0  0
   -0.9480   -2.0820  -16.5120 C   0  0  0  0  0  0  0  0  0  0  0  0
   -6.8780   -2.6390  -16.7230 C   0  0  0  0  0  0  0  0  0  0  0  0
   -8.4150   -3.6930  -15.5600 N   0  0  0  0  0  0  0  0  0  0  0  0
   -7.0630   -1.4470  -18.6680 N   0  0  0  0  0  0  0  0  0  0  0  0
   -1.9210   -2.4250  -15.6030 C   0  0  0  0  0  0  0  0  0  0  0  0
  1 15  4  0
  2 12  4  0
  3  1  4  0
  3  2  4  0
  4 17  4  0
  5  8  1  0
  5 14  1  0
  5  2  1  0
  6 11  4  0
  7 18  1  0
  9  4  1  0
 10  8  2  0
 10  3  1  0
 12 19  4  0
 13  7  2  0
 13  8  1  0
 14 16  1  0
 15 19  4  0
 16  4  4  0
 16  6  4  0
 17 11  4  0
 18 14  2  0
M  END
$$$$

     RDKit          3D

 19 22  0  0  0  0  0  0  0  0999 V2000
   -1.3480   -1.0560  -17.2580 C   0  0  0  0  0  0  0  0  0  0  0  0
   -3.6710   -1.9590  -17.0340 C   0  0  0  0  0  0  0  0  0  0  0  0
   -2.5640   -1.3650  -17.8370 C   0  0  0  0  0  0  0  0  0  0  0  0
   -8.2130   -3.0390  -16.2010 C   0  0  0  0  0  0  0  0  0  0  0  0
   -4.8890   -1.7360  -17.7940 C   0  0  0  0  0  0  0  0  0  0  0  0
   -6.1030   -3.2240  -15.6700 N   0  0  0  0  0  0  0  0  0  0  0  0
   -6.6830   -0.9150  -19.9370 C   0  0  0  0  0  0  0  0  0  0  0  0
   -4.4820   -1.1080  -19.0400 C   0  0  0  0  0  0  0  0  0  0  0  0
   -9.4860   -2.8160  -16.9760 C   0  0  0  0  0  0  0  0  0  0  0  0
   -3.0090   -1.1240  -19.0280 N   0  0  0  0  0  0  0  0  0  0  0  0
   -6.9050   -3.9010  -14.7030 N   0  0  0  0  0  0  0  0  0  0  0  0
   -3.3160   -2.4250  -15.7430 C   0  0  0  0  0  0  0  0  0  0  0  0
   -5.3050   -0.7070  -20.1060 C   0  0  0  0  0  0  0  0  0  0  0  0
   -6.3530   -1.9860  -17.6500 C   0  0  0  0  0  0  0  0  0  0  0  0
   -0.9960   -1.6910  -16.0630 C   0  0  0  0  0  0  0  0  0  0  0  0
   -6.8600   -2.6630  -16.5030 C   0  0  0  0  0  0  0  0  0  0  0  0
   -8.2430   -3.7540  -15.0800 N   0  0  0  0  0  0  0  0  0  0  0  0
   -7.1470   -1.5310  -18.7090 C   0  0  0  0  0  0  0  0  0  0  0  0
   -1.9050   -2.3480  -15.3180 C   0  0  0  0  0  0  0  0  0  0  0  0
  1 15  4  0
  2 12  4  0
  3  1  4  0
  3  2  4  0
  4 17  4  0
  5 14  4  0
  5  2  4  0
  6 11  4  0
  7 18  4  0
  8 10  4  0
  8  5  4  0
  9  4  1  0
 10  3  4  0
 12 19  4  0
 13  7  4  0
 13  8  4  0
 14 16  1  0
 15 19  4  0
 16  4  4  0
 16  6  4  0
 17 11  4  0
 18 14  4  0
M  END
$$$$

     RDKit          3D

 19 22  0  0  0  0  0  0  0  0999 V2000
   -1.4590   -1.1990  -17.9600 C   0  0  0  0  0  0  0  0  0  0  0  0
   -3.7210   -1.9230  -17.3470 C   0  0  0  0  0  0  0  0  0  0  0  0
   -2.8650   -1.3250  -18.2160 C   0  0  0  0  0  0  0  0  0  0  0  0
   -8.2050   -3.1690  -16.2010 C   0  0  0  0  0  0  0  0  0  0  0  0
   -5.0690   -1.7540  -17.9740 C   0  0  0  0  0  0  0  0  0  0  0  0
   -6.0350   -3.2030  -15.4600 N   0  0  0  0  0  0  0  0  0  0  0  0
   -7.0980   -0.8540  -19.6230 C   0  0  0  0  0  0  0  0  0  0  0  0
   -4.8200   -1.0340  -19.1840 C   0  0  0  0  0  0  0  0  0  0  0  0
   -9.2320   -3.0140  -16.8220 O   0  0  0  0  0  0  0  0  0  0  0  0
   -3.4780   -0.8960  -19.3570 N   0  0  0  0  0  0  0  0  0  0  0  0
   -6.7930   -3.8710  -14.5670 C   0  0  0  0  0  0  0  0  0  0  0  0
   -3.2340   -2.5940  -16.2050 C   0  0  0  0  0  0  0  0  0  0  0  0
   -5.8400   -0.5370  -19.9970 C   0  0  0  0  0  0  0  0  0  0  0  0
   -6.4450   -2.0690  -17.6210 C   0  0  0  0  0  0  0  0  0  0  0  0
   -0.9710   -1.8940  -16.8850 C   0  0  0  0  0  0  0  0  0  0  0  0
   -6.8500   -2.8150  -16.4720 N   0  0  0  0  0  0  0  0  0  0  0  0
   -8.0920   -3.9850  -15.0300 N   0  0  0  0  0  0  0  0  0  0  0  0
   -7.4710   -1.6080  -18.4970 C   0  0  0  0  0  0  0  0  0  0  0  0
   -1.8420   -2.5960  -16.0140 C   0  0  0  0  0  0  0  0  0  0  0  0
  1 15  1  0
  2 12  1  0
  3  1  2  0
  3  2  1  0
  4 17  4  0
  5 14  4  0
  5  2  2  0
  6 11  4  0
  7 18  4  0
  8  5  4  0
  9  4  2  0
 10  8  2  0
 10  3  1  0
 12 19  2  0
 13  7  4  0
 13  8  4  0
 14 16  1  0
 15 19  1  0
 16  4  4  0
 16  6  4  0
 17 11  4  0
 18 14  4  0
M  END
$$$$

     RDKit          3D

 19 22  0  0  0  0  0  0  0  0999 V2000
   -1.2120   -2.1020  -17.8770 C   0  0  0  0  0  0  0  0  0  0  0  0
   -3.6980   -2.0770  -17.2920 C   0  0  0  0  0  0  0  0  0  0  0  0
   -2.6650   -1.8390  -18.1280 C   0  0  0  0  0  0  0  0  0  0  0  0
   -8.2800   -3.1800  -16.3630 C   0  0  0  0  0  0  0  0  0  0  0  0
   -4.9690   -1.8700  -17.9600 C   0  0  0  0  0  0  0  0  0  0  0  0
   -6.2040   -3.2360  -15.4540 N   0  0  0  0  0  0  0  0  0  0  0  0
   -6.8570   -0.8750  -19.7910 C   0  0  0  0  0  0  0  0  0  0  0  0
   -4.5820   -1.2280  -19.1270 C   0  0  0  0  0  0  0  0  0  0  0  0
   -9.4260   -3.0150  -17.2640 C   0  0  0  0  0  0  0  0  0  0  0  0
   -3.1840   -1.2800  -19.2570 N   0  0  0  0  0  0  0  0  0  0  0  0
   -7.0320   -3.7910  -14.6740 C   0  0  0  0  0  0  0  0  0  0  0  0
   -3.4410   -2.1660  -15.8080 C   0  0  0  0  0  0  0  0  0  0  0  0
   -5.5080   -0.6750  -19.9860 N   0  0  0  0  0  0  0  0  0  0  0  0
   -6.3840   -2.0810  -17.6870 C   0  0  0  0  0  0  0  0  0  0  0  0
   -0.9640   -2.1570  -16.4090 C   0  0  0  0  0  0  0  0  0  0  0  0
   -6.8800   -2.8010  -16.5340 C   0  0  0  0  0  0  0  0  0  0  0  0
   -8.3000   -3.7330  -15.1620 N   0  0  0  0  0  0  0  0  0  0  0  0
   -7.2610   -1.6040  -18.7210 C   0  0  0  0  0  0  0  0  0  0  0  0
   -2.0090   -2.8350  -15.5930 C   0  0  0  0  0  0  0  0  0  0  0  0
  1 15  1  0
  2 12  1  0
  3  1  1  0
  3  2  1  0
  4 17  4  0
  5 14  2  0
  5  2  1  0
  6 11  4  0
  7 18  2  0
  8  5  1  0
  9  4  1  0
 10  8  2  0
 10  3  1  0
 12 19  1  0
 13  7  1  0
 13  8  1  0
 14 16  1  0
 15 19  1  0
 16  4  4  0
 16  6  4  0
 17 11  4  0
 18 14  1  0
M  END
$$$$

     RDKit          3D

 19 22  0  0  0  0  0  0  0  0999 V2000
   -1.1640   -1.5560  -17.5070 C   0  0  0  0  0  0  0  0  0  0  0  0
   -3.5380   -1.9850  -17.0710 C   0  0  0  0  0  0  0  0  0  0  0  0
   -2.4870   -1.6460  -17.9820 C   0  0  0  0  0  0  0  0  0  0  0  0
   -8.0580   -3.2760  -16.4640 N   0  0  0  0  0  0  0  0  0  0  0  0
   -4.7510   -1.6990  -17.7820 C   0  0  0  0  0  0  0  0  0  0  0  0
   -6.1570   -3.0030  -15.3490 N   0  0  0  0  0  0  0  0  0  0  0  0
   -6.5930   -0.7630  -19.6720 C   0  0  0  0  0  0  0  0  0  0  0  0
   -4.3480   -1.1430  -19.0210 C   0  0  0  0  0  0  0  0  0  0  0  0
   -9.0170   -3.1290  -17.4490 N   0  0  0  0  0  0  0  0  0  0  0  0
   -3.0150   -1.2010  -19.0960 N   0  0  0  0  0  0  0  0  0  0  0  0
   -7.0130   -3.8770  -14.6540 O   0  0  0  0  0  0  0  0  0  0  0  0
   -3.2150   -2.3480  -15.6600 C   0  0  0  0  0  0  0  0  0  0  0  0
   -5.2770   -0.6190  -19.9080 C   0  0  0  0  0  0  0  0  0  0  0  0
   -6.1290   -1.9030  -17.6110 C   0  0  0  0  0  0  0  0  0  0  0  0
   -0.8910   -1.9370  -16.1970 C   0  0  0  0  0  0  0  0  0  0  0  0
   -6.7310   -2.7000  -16.5100 C   0  0  0  0  0  0  0  0  0  0  0  0
   -8.1540   -3.9840  -15.3610 N   0  0  0  0  0  0  0  0  0  0  0  0
   -7.0020   -1.3990  -18.4820 C   0  0  0  0  0  0  0  0  0  0  0  0
   -1.8410   -2.3770  -15.3040 C   0  0  0  0  0  0  0  0  0  0  0  0
  1 15  1  0
  2 12  1  0
  3  1  2  0
  3  2  1  0
  4 17  1  0
  5 14  4  0
  5  2  2  0
  6 11  1  0
  7 18  4  0
  8  5  4  0
  9  4  1  0
 10  8  2  0
 10  3  1  0
 12 19  2  0
 13  7  4  0
 13  8  4  0
 14 16  1  0
 15 19  1  0
 16  4  1  0
 16  6  2  0
 17 11  1  0
 18 14  4  0
M  END
$$$$

     RDKit          3D

 19 22  0  0  0  0  0  0  0  0999 V2000
   -1.2540   -1.1360  -17.5250 C   0  0  0  0  0  0  0  0  0  0  0  0
   -3.5570   -1.7060  -17.0030 C   0  0  0  0  0  0  0  0  0  0  0  0
   -2.5910   -1.2640  -17.9160 C   0  0  0  0  0  0  0  0  0  0  0  0
   -8.1140   -3.1800  -16.1220 C   0  0  0  0  0  0  0  0  0  0  0  0
   -4.8430   -1.6510  -17.7290 C   0  0  0  0  0  0  0  0  0  0  0  0
   -6.1490   -3.2450  -15.1820 C   0  0  0  0  0  0  0  0  0  0  0  0
   -6.8600   -1.0930  -19.6130 C   0  0  0  0  0  0  0  0  0  0  0  0
   -4.5540   -1.0790  -18.9630 C   0  0  0  0  0  0  0  0  0  0  0  0
   -9.2040   -2.9400  -16.9000 N   0  0  0  0  0  0  0  0  0  0  0  0
   -3.1820   -0.8430  -19.0290 N   0  0  0  0  0  0  0  0  0  0  0  0
   -6.9840   -3.9330  -14.3650 N   0  0  0  0  0  0  0  0  0  0  0  0
   -3.2130   -2.0580  -15.7650 C   0  0  0  0  0  0  0  0  0  0  0  0
   -5.5210   -0.7740  -19.9020 C   0  0  0  0  0  0  0  0  0  0  0  0
   -6.2140   -2.0260  -17.4840 C   0  0  0  0  0  0  0  0  0  0  0  0
   -0.9730   -1.1390  -16.2530 C   0  0  0  0  0  0  0  0  0  0  0  0
   -6.8020   -2.7600  -16.3200 C   0  0  0  0  0  0  0  0  0  0  0  0
   -8.3350   -3.8710  -14.9560 N   0  0  0  0  0  0  0  0  0  0  0  0
   -7.1970   -1.7130  -18.4400 C   0  0  0  0  0  0  0  0  0  0  0  0
   -1.8930   -1.8230  -15.3140 C   0  0  0  0  0  0  0  0  0  0  0  0
  1 15  1  0
  2 12  1  0
  3  1  2  0
  3  2  1  0
  4 17  4  0
  5 14  4  0
  5  2  2  0
  6 11  4  0
  7 18  4  0
  8  5  4  0
  9  4  1  0
 10  8  2  0
 10  3  1  0
 12 19  2  0
 13  7  4  0
 13  8  4  0
 14 16  1  0
 15 19  1  0
 16  4  4  0
 16  6  4  0
 17 11  4  0
 18 14  4  0
M  END
$$$$

     RDKit          3D

 19 22  0  0  0  0  0  0  0  0999 V2000
   -1.4350   -1.0790  -17.5030 C   0  0  0  0  0  0  0  0  0  0  0  0
   -3.7090   -2.1030  -17.1090 C   0  0  0  0  0  0  0  0  0  0  0  0
   -2.7770   -1.3540  -17.7950 C   0  0  0  0  0  0  0  0  0  0  0  0
   -8.2660   -3.0910  -16.3960 C   0  0  0  0  0  0  0  0  0  0  0  0
   -5.0180   -1.7790  -17.7080 C   0  0  0  0  0  0  0  0  0  0  0  0
   -6.2940   -3.0300  -15.4060 N   0  0  0  0  0  0  0  0  0  0  0  0
   -6.8280   -0.8790  -19.4920 C   0  0  0  0  0  0  0  0  0  0  0  0
   -4.6990   -1.0210  -18.8730 C   0  0  0  0  0  0  0  0  0  0  0  0
   -9.3760   -3.0210  -17.2670 C   0  0  0  0  0  0  0  0  0  0  0  0
   -3.4000   -0.7380  -18.9520 O   0  0  0  0  0  0  0  0  0  0  0  0
   -7.1320   -3.6520  -14.6750 N   0  0  0  0  0  0  0  0  0  0  0  0
   -3.2550   -2.8960  -16.1360 C   0  0  0  0  0  0  0  0  0  0  0  0
   -5.6410   -0.6130  -19.6980 N   0  0  0  0  0  0  0  0  0  0  0  0
   -6.4130   -2.0060  -17.6200 C   0  0  0  0  0  0  0  0  0  0  0  0
   -0.9970   -2.0710  -16.5540 C   0  0  0  0  0  0  0  0  0  0  0  0
   -6.9510   -2.6770  -16.4850 C   0  0  0  0  0  0  0  0  0  0  0  0
   -8.3340   -3.7710  -15.1900 N   0  0  0  0  0  0  0  0  0  0  0  0
   -7.1690   -1.5380  -18.5160 N   0  0  0  0  0  0  0  0  0  0  0  0
   -1.8390   -2.8380  -15.8460 C   0  0  0  0  0  0  0  0  0  0  0  0
  1 15  4  0
  2 12  4  0
  3  1  4  0
  3  2  4  0
  4 17  4  0
  5 14  4  0
  5  2  4  0
  6 11  4  0
  7 18  4  0
  8  5  4  0
  9  4  1  0
 10  8  4  0
 10  3  4  0
 12 19  4  0
 13  7  4  0
 13  8  4  0
 14 16  1  0
 15 19  4  0
 16  4  4  0
 16  6  4  0
 17 11  4  0
 18 14  4  0
M  END
$$$$

     RDKit          3D

 19 22  0  0  0  0  0  0  0  0999 V2000
   -1.2400   -1.3940  -17.5340 C   0  0  0  0  0  0  0  0  0  0  0  0
   -3.6530   -1.8890  -17.1750 C   0  0  0  0  0  0  0  0  0  0  0  0
   -2.5970   -1.3210  -17.9540 C   0  0  0  0  0  0  0  0  0  0  0  0
   -8.2880   -3.0330  -16.1310 C   0  0  0  0  0  0  0  0  0  0  0  0
   -4.9320   -1.6320  -17.9070 C   0  0  0  0  0  0  0  0  0  0  0  0
   -6.1850   -3.2240  -15.3250 C   0  0  0  0  0  0  0  0  0  0  0  0
   -6.8850   -0.7900  -19.8280 C   0  0  0  0  0  0  0  0  0  0  0  0
   -4.5240   -0.9900  -19.2280 C   0  0  0  0  0  0  0  0  0  0  0  0
   -9.4930   -2.7240  -16.7590 N   0  0  0  0  0  0  0  0  0  0  0  0
   -3.1520   -0.8240  -19.1790 N   0  0  0  0  0  0  0  0  0  0  0  0
   -7.0320   -3.9620  -14.5360 N   0  0  0  0  0  0  0  0  0  0  0  0
   -3.3480   -2.4210  -15.8700 C   0  0  0  0  0  0  0  0  0  0  0  0
   -5.5520   -0.5570  -20.1550 C   0  0  0  0  0  0  0  0  0  0  0  0
   -6.4130   -1.9160  -17.6890 C   0  0  0  0  0  0  0  0  0  0  0  0
   -0.9920   -1.9510  -16.2170 C   0  0  0  0  0  0  0  0  0  0  0  0
   -6.9260   -2.6620  -16.4410 C   0  0  0  0  0  0  0  0  0  0  0  0
   -8.2460   -3.8660  -14.9310 N   0  0  0  0  0  0  0  0  0  0  0  0
   -7.3010   -1.5120  -18.6520 C   0  0  0  0  0  0  0  0  0  0  0  0
   -2.0060   -2.4310  -15.3840 C   0  0  0  0  0  0  0  0  0  0  0  0
  1 15  1  0
  2 12  1  0
  3  1  2  0
  3  2  1  0
  4 17  4  0
  5 14  4  0
  5  2  2  0
  6 11  4  0
  7 18  4  0
  8 10  2  0
  8  5  4  0
  9  4  1  0
 10  3  1  0
 12 19  2  0
 13  7  4  0
 13  8  4  0
 14 16  1  0
 15 19  1  0
 16  4  4  0
 16  6  4  0
 17 11  4  0
 18 14  4  0
M  END
$$$$

     RDKit          3D

 19 22  0  0  0  0  0  0  0  0999 V2000
   -1.1160   -1.4910  -17.7270 C   0  0  0  0  0  0  0  0  0  0  0  0
   -3.4330   -1.8930  -17.2580 C   0  0  0  0  0  0  0  0  0  0  0  0
   -2.4530   -1.4750  -18.0810 C   0  0  0  0  0  0  0  0  0  0  0  0
   -8.2690   -2.9950  -16.4690 C   0  0  0  0  0  0  0  0  0  0  0  0
   -4.7560   -1.7150  -17.8660 C   0  0  0  0  0  0  0  0  0  0  0  0
   -6.2640   -3.0420  -15.4070 N   0  0  0  0  0  0  0  0  0  0  0  0
   -6.7710   -0.8180  -19.6170 C   0  0  0  0  0  0  0  0  0  0  0  0
   -4.5310   -1.0160  -19.0700 C   0  0  0  0  0  0  0  0  0  0  0  0
   -9.4370   -2.7690  -17.4430 C   0  0  0  0  0  0  0  0  0  0  0  0
   -3.0440   -0.7650  -19.3000 C   0  0  0  0  0  0  0  0  0  0  0  0
   -7.2880   -3.8380  -14.7250 N   0  0  0  0  0  0  0  0  0  0  0  0
   -3.0900   -2.3850  -15.9570 C   0  0  0  0  0  0  0  0  0  0  0  0
   -5.4640   -0.5340  -19.9390 N   0  0  0  0  0  0  0  0  0  0  0  0
   -6.2120   -1.9490  -17.5710 C   0  0  0  0  0  0  0  0  0  0  0  0
   -0.7990   -2.0170  -16.4240 C   0  0  0  0  0  0  0  0  0  0  0  0
   -6.8420   -2.6870  -16.5750 C   0  0  0  0  0  0  0  0  0  0  0  0
   -8.4630   -3.7590  -15.3700 N   0  0  0  0  0  0  0  0  0  0  0  0
   -7.1060   -1.5060  -18.5700 N   0  0  0  0  0  0  0  0  0  0  0  0
   -1.7960   -2.4400  -15.5800 C   0  0  0  0  0  0  0  0  0  0  0  0
  1 15  1  0
  2 12  1  0
  3  1  2  0
  3  2  1  0
  4 17  1  0
  5 14  4  0
  5  2  2  0
  6 11  1  0
  7 18  4  0
  8  5  4  0
  9  4  1  0
 10  8  2  0
 10  3  1  0
 12 19  2  0
 13  7  4  0
 13  8  4  0
 14 16  1  0
 15 19  1  0
 16  4  2  0
 16  6  1  0
 17 11  1  0
 18 14  4  0
M  END
$$$$

     RDKit          3D

 19 22  0  0  0  0  0  0  0  0999 V2000
   -1.5570   -0.9800  -17.1670 C   0  0  0  0  0  0  0  0  0  0  0  0
   -3.7720   -1.9580  -17.1240 C   0  0  0  0  0  0  0  0  0  0  0  0
   -2.8110   -1.2860  -17.7960 C   0  0  0  0  0  0  0  0  0  0  0  0
   -8.2890   -3.2000  -16.2130 C   0  0  0  0  0  0  0  0  0  0  0  0
   -5.0050   -1.8010  -17.7990 C   0  0  0  0  0  0  0  0  0  0  0  0
   -6.1790   -3.3940  -15.5340 C   0  0  0  0  0  0  0  0  0  0  0  0
   -6.8960   -0.9550  -19.7410 C   0  0  0  0  0  0  0  0  0  0  0  0
   -4.6410   -1.0900  -18.9890 C   0  0  0  0  0  0  0  0  0  0  0  0
   -9.4990   -2.8960  -16.9430 C   0  0  0  0  0  0  0  0  0  0  0  0
   -3.3360   -0.8760  -18.9300 N   0  0  0  0  0  0  0  0  0  0  0  0
   -7.0460   -4.1670  -14.7630 N   0  0  0  0  0  0  0  0  0  0  0  0
   -3.3860   -2.7550  -15.9140 C   0  0  0  0  0  0  0  0  0  0  0  0
   -5.5450   -0.5970  -19.9560 C   0  0  0  0  0  0  0  0  0  0  0  0
   -6.3310   -2.0930  -17.5970 C   0  0  0  0  0  0  0  0  0  0  0  0
   -1.0990   -2.0390  -16.3310 C   0  0  0  0  0  0  0  0  0  0  0  0
   -6.9800   -2.8360  -16.5160 C   0  0  0  0  0  0  0  0  0  0  0  0
   -8.3040   -3.9320  -15.1960 N   0  0  0  0  0  0  0  0  0  0  0  0
   -7.2630   -1.6380  -18.5980 C   0  0  0  0  0  0  0  0  0  0  0  0
   -2.0440   -2.7520  -15.5520 C   0  0  0  0  0  0  0  0  0  0  0  0
  1 15  1  0
  2 12  1  0
  3  1  1  0
  3  2  1  0
  4 17  4  0
  5 14  4  0
  5  2  2  0
  6 11  4  0
  7 18  4  0
  8 10  2  0
  8  5  4  0
  9  4  1  0
 10  3  1  0
 12 19  2  0
 13  7  4  0
 13  8  4  0
 14 16  1  0
 15 19  1  0
 16  4  4  0
 16  6  4  0
 17 11  4  0
 18 14  4  0
M  END
$$$$

     RDKit          3D

 19 22  0  0  0  0  0  0  0  0999 V2000
   -1.3050   -1.5010  -18.0130 C   0  0  0  0  0  0  0  0  0  0  0  0
   -3.6310   -1.8160  -17.2920 C   0  0  0  0  0  0  0  0  0  0  0  0
   -2.7430   -1.2380  -18.1610 C   0  0  0  0  0  0  0  0  0  0  0  0
   -8.2820   -3.1040  -16.3600 C   0  0  0  0  0  0  0  0  0  0  0  0
   -4.9640   -1.7380  -17.8490 C   0  0  0  0  0  0  0  0  0  0  0  0
   -6.3360   -3.3380  -15.5560 N   0  0  0  0  0  0  0  0  0  0  0  0
   -7.0650   -0.7040  -19.5300 C   0  0  0  0  0  0  0  0  0  0  0  0
   -4.8300   -1.1730  -18.9910 C   0  0  0  0  0  0  0  0  0  0  0  0
   -9.4070   -2.9050  -17.0740 N   0  0  0  0  0  0  0  0  0  0  0  0
   -3.3740   -1.0070  -19.2230 N   0  0  0  0  0  0  0  0  0  0  0  0
   -7.1230   -3.9270  -14.7230 O   0  0  0  0  0  0  0  0  0  0  0  0
   -3.1450   -2.4640  -16.0880 C   0  0  0  0  0  0  0  0  0  0  0  0
   -5.5820   -0.7580  -19.8810 C   0  0  0  0  0  0  0  0  0  0  0  0
   -6.4300   -1.9600  -17.6000 C   0  0  0  0  0  0  0  0  0  0  0  0
   -0.8070   -1.8150  -16.7550 N   0  0  0  0  0  0  0  0  0  0  0  0
   -6.9900   -2.7580  -16.6180 C   0  0  0  0  0  0  0  0  0  0  0  0
   -8.2940   -3.7570  -15.1550 N   0  0  0  0  0  0  0  0  0  0  0  0
   -7.4830   -1.3740  -18.5550 N   0  0  0  0  0  0  0  0  0  0  0  0
   -1.7900   -2.3470  -15.8060 C   0  0  0  0  0  0  0  0  0  0  0  0
  1 15  4  0
  2 12  4  0
  3  1  4  0
  3  2  4  0
  4 17  4  0
  5 14  4  0
  5  2  4  0
  6 11  4  0
  7 18  4  0
  8  5  4  0
  9  4  1  0
 10  8  4  0
 10  3  4  0
 12 19  4  0
 13  7  4  0
 13  8  4  0
 14 16  1  0
 15 19  4  0
 16  4  4  0
 16  6  4  0
 17 11  4  0
 18 14  4  0
M  END
$$$$

     RDKit          3D

 19 22  0  0  0  0  0  0  0  0999 V2000
   -1.2840   -1.8870  -17.9950 C   0  0  0  0  0  0  0  0  0  0  0  0
   -3.7600   -2.0110  -17.2030 C   0  0  0  0  0  0  0  0  0  0  0  0
   -2.7230   -1.7260  -18.0540 C   0  0  0  0  0  0  0  0  0  0  0  0
   -8.2380   -3.1460  -16.4100 C   0  0  0  0  0  0  0  0  0  0  0  0
   -5.0010   -1.8490  -17.9380 C   0  0  0  0  0  0  0  0  0  0  0  0
   -6.2150   -3.3050  -15.6040 N   0  0  0  0  0  0  0  0  0  0  0  0
   -6.7740   -0.9760  -19.8580 C   0  0  0  0  0  0  0  0  0  0  0  0
   -4.5730   -1.1910  -19.1410 C   0  0  0  0  0  0  0  0  0  0  0  0
   -9.3550   -3.0960  -17.2090 N   0  0  0  0  0  0  0  0  0  0  0  0
   -3.2050   -1.1180  -19.1550 N   0  0  0  0  0  0  0  0  0  0  0  0
   -7.0770   -3.9140  -14.7670 N   0  0  0  0  0  0  0  0  0  0  0  0
   -3.5910   -2.5180  -15.9580 C   0  0  0  0  0  0  0  0  0  0  0  0
   -5.4300   -0.7150  -20.1010 C   0  0  0  0  0  0  0  0  0  0  0  0
   -6.2960   -2.1140  -17.7920 C   0  0  0  0  0  0  0  0  0  0  0  0
   -1.0130   -1.4570  -16.6110 C   0  0  0  0  0  0  0  0  0  0  0  0
   -6.9020   -2.8270  -16.6420 C   0  0  0  0  0  0  0  0  0  0  0  0
   -8.2440   -3.8890  -15.2450 N   0  0  0  0  0  0  0  0  0  0  0  0
   -7.2500   -1.6140  -18.7720 C   0  0  0  0  0  0  0  0  0  0  0  0
   -1.9380   -2.3700  -15.2960 S   0  0  0  0  0  0  0  0  0  0  0  0
  1 15  1  0
  2 12  1  0
  3  1  1  0
  3  2  4  0
  4 17  4  0
  5 14  4  0
  5  2  4  0
  6 11  4  0
  7 18  4  0
  8  5  4  0
  9  4  1  0
 10  8  4  0
 10  3  4  0
 12 19  1  0
 13  7  4  0
 13  8  4  0
 14 16  1  0
 15 19  1  0
 16  4  4  0
 16  6  4  0
 17 11  4  0
 18 14  4  0
M  END
$$$$

     RDKit          3D

 19 22  0  0  0  0  0  0  0  0999 V2000
   -1.3190   -1.4750  -17.6320 C   0  0  0  0  0  0  0  0  0  0  0  0
   -3.6540   -1.9910  -17.2370 C   0  0  0  0  0  0  0  0  0  0  0  0
   -2.6480   -1.4340  -18.0780 C   0  0  0  0  0  0  0  0  0  0  0  0
   -8.1560   -3.1200  -16.4300 C   0  0  0  0  0  0  0  0  0  0  0  0
   -4.9410   -1.7790  -17.9390 C   0  0  0  0  0  0  0  0  0  0  0  0
   -6.0970   -3.2180  -15.5250 C   0  0  0  0  0  0  0  0  0  0  0  0
   -6.8850   -0.7600  -19.6870 C   0  0  0  0  0  0  0  0  0  0  0  0
   -4.6250   -1.0420  -19.0550 C   0  0  0  0  0  0  0  0  0  0  0  0
   -9.1920   -2.9160  -17.1410 N   0  0  0  0  0  0  0  0  0  0  0  0
   -3.2510   -0.9760  -19.1570 N   0  0  0  0  0  0  0  0  0  0  0  0
   -6.9920   -3.8180  -14.7840 N   0  0  0  0  0  0  0  0  0  0  0  0
   -3.2870   -2.4790  -16.0020 C   0  0  0  0  0  0  0  0  0  0  0  0
   -5.5850   -0.5560  -19.9700 C   0  0  0  0  0  0  0  0  0  0  0  0
   -6.3250   -2.0510  -17.7290 C   0  0  0  0  0  0  0  0  0  0  0  0
   -1.0650   -1.7920  -16.3580 C   0  0  0  0  0  0  0  0  0  0  0  0
   -6.7910   -2.7230  -16.6350 C   0  0  0  0  0  0  0  0  0  0  0  0
   -8.1340   -3.9030  -15.3490 N   0  0  0  0  0  0  0  0  0  0  0  0
   -7.3050   -1.4870  -18.6220 C   0  0  0  0  0  0  0  0  0  0  0  0
   -2.0380   -2.3270  -15.4970 C   0  0  0  0  0  0  0  0  0  0  0  0
  1 15  1  0
  2 12  1  0
  3  1  2  0
  3  2  1  0
  4 17  1  0
  5 14  4  0
  5  2  2  0
  6 11  1  0
  7 18  4  0
  8  5  4  0
  9  4  2  0
 10  8  2  0
 10  3  1  0
 12 19  2  0
 13  7  4  0
 13  8  4  0
 15 19  1  0
 16 14  1  0
 16  4  1  0
 16  6  1  0
 17 11  1  0
 18 14  4  0
M  END
$$$$

     RDKit          3D

 19 22  0  0  0  0  0  0  0  0999 V2000
   -1.2200   -1.0190  -17.2420 C   0  0  0  0  0  0  0  0  0  0  0  0
   -3.6310   -1.7680  -16.9250 C   0  0  0  0  0  0  0  0  0  0  0  0
   -2.5900   -1.1050  -17.6880 C   0  0  0  0  0  0  0  0  0  0  0  0
   -8.1640   -3.1190  -16.2500 C   0  0  0  0  0  0  0  0  0  0  0  0
   -4.8810   -1.6340  -17.7580 C   0  0  0  0  0  0  0  0  0  0  0  0
   -6.1230   -3.3460  -15.3080 C   0  0  0  0  0  0  0  0  0  0  0  0
   -6.7530   -0.9430  -19.7030 C   0  0  0  0  0  0  0  0  0  0  0  0
   -4.5890   -0.9530  -18.9850 C   0  0  0  0  0  0  0  0  0  0  0  0
   -9.3170   -2.9820  -17.1840 C   0  0  0  0  0  0  0  0  0  0  0  0
   -3.1950   -0.6860  -18.9960 N   0  0  0  0  0  0  0  0  0  0  0  0
   -7.0700   -3.9440  -14.5180 N   0  0  0  0  0  0  0  0  0  0  0  0
   -3.3040   -2.2960  -15.5760 C   0  0  0  0  0  0  0  0  0  0  0  0
   -5.4830   -0.6430  -19.9180 N   0  0  0  0  0  0  0  0  0  0  0  0
   -6.2100   -1.9770  -17.5910 C   0  0  0  0  0  0  0  0  0  0  0  0
   -0.9070   -1.4140  -15.8570 C   0  0  0  0  0  0  0  0  0  0  0  0
   -6.7280   -2.7590  -16.4420 C   0  0  0  0  0  0  0  0  0  0  0  0
   -8.3100   -3.7260  -15.1040 N   0  0  0  0  0  0  0  0  0  0  0  0
   -7.2000   -1.5420  -18.5890 C   0  0  0  0  0  0  0  0  0  0  0  0
   -1.9680   -2.0940  -15.1050 C   0  0  0  0  0  0  0  0  0  0  0  0
  1 15  4  0
  2 12  4  0
  3  1  4  0
  3  2  4  0
  4 17  4  0
  5  8  1  0
  5 14  1  0
  5  2  1  0
  6 11  4  0
  7 18  1  0
  9  4  1  0
 10  8  2  0
 10  3  1  0
 12 19  4  0
 13  7  2  0
 13  8  1  0
 14 16  1  0
 15 19  4  0
 16  4  4  0
 16  6  4  0
 17 11  4  0
 18 14  2  0
M  END
$$$$

     RDKit          3D

 19 22  0  0  0  0  0  0  0  0999 V2000
   -1.3840   -1.4250  -17.4500 C   0  0  0  0  0  0  0  0  0  0  0  0
   -3.6910   -1.9740  -17.1610 C   0  0  0  0  0  0  0  0  0  0  0  0
   -2.6810   -1.3760  -17.9330 C   0  0  0  0  0  0  0  0  0  0  0  0
   -8.2710   -3.2520  -16.3220 C   0  0  0  0  0  0  0  0  0  0  0  0
   -4.9890   -1.7360  -17.9020 C   0  0  0  0  0  0  0  0  0  0  0  0
   -6.3070   -3.3870  -15.3380 C   0  0  0  0  0  0  0  0  0  0  0  0
   -6.7740   -0.8530  -19.6070 C   0  0  0  0  0  0  0  0  0  0  0  0
   -4.5880   -1.1390  -19.0120 C   0  0  0  0  0  0  0  0  0  0  0  0
   -9.2680   -2.9470  -17.0110 O   0  0  0  0  0  0  0  0  0  0  0  0
   -3.2510   -0.9410  -19.0980 N   0  0  0  0  0  0  0  0  0  0  0  0
   -7.1560   -4.0480  -14.5630 N   0  0  0  0  0  0  0  0  0  0  0  0
   -3.3250   -2.5430  -16.0430 C   0  0  0  0  0  0  0  0  0  0  0  0
   -5.5400   -0.6910  -19.9200 N   0  0  0  0  0  0  0  0  0  0  0  0
   -6.3230   -2.0210  -17.6590 C   0  0  0  0  0  0  0  0  0  0  0  0
   -1.1220   -1.8840  -16.1730 C   0  0  0  0  0  0  0  0  0  0  0  0
   -6.9610   -2.8100  -16.5240 C   0  0  0  0  0  0  0  0  0  0  0  0
   -8.3730   -3.9550  -15.2050 N   0  0  0  0  0  0  0  0  0  0  0  0
   -7.1890   -1.4740  -18.5130 C   0  0  0  0  0  0  0  0  0  0  0  0
   -2.0920   -2.5070  -15.4840 C   0  0  0  0  0  0  0  0  0  0  0  0
  1 15  4  0
  2 12  4  0
  3  1  4  0
  3  2  4  0
  4 17  1  0
  5 14  2  0
  5  2  1  0
  6 11  2  0
  7 18  1  0
  8  5  1  0
  9  4  2  0
 10  8  2  0
 10  3  1  0
 12 19  4  0
 13  7  2  0
 13  8  1  0
 15 19  4  0
 16 14  1  0
 16  4  1  0
 16  6  1  0
 17 11  1  0
 18 14  1  0
M  END
$$$$

     RDKit          3D

 19 22  0  0  0  0  0  0  0  0999 V2000
   -1.2440   -1.2450  -17.3930 C   0  0  0  0  0  0  0  0  0  0  0  0
   -3.5670   -1.8110  -17.0240 C   0  0  0  0  0  0  0  0  0  0  0  0
   -2.6170   -1.2810  -17.7990 C   0  0  0  0  0  0  0  0  0  0  0  0
   -8.1180   -2.9590  -16.1810 C   0  0  0  0  0  0  0  0  0  0  0  0
   -4.8160   -1.6660  -17.7490 C   0  0  0  0  0  0  0  0  0  0  0  0
   -5.9760   -3.5660  -15.6250 C   0  0  0  0  0  0  0  0  0  0  0  0
   -6.6770   -0.9840  -19.6840 C   0  0  0  0  0  0  0  0  0  0  0  0
   -4.4970   -1.0210  -18.9150 C   0  0  0  0  0  0  0  0  0  0  0  0
   -9.2040   -2.4500  -16.7530 O   0  0  0  0  0  0  0  0  0  0  0  0
   -3.2260   -0.7940  -18.8430 N   0  0  0  0  0  0  0  0  0  0  0  0
   -6.8360   -4.0120  -14.7950 N   0  0  0  0  0  0  0  0  0  0  0  0
   -3.2550   -2.3900  -15.8500 C   0  0  0  0  0  0  0  0  0  0  0  0
   -5.3720   -0.6390  -19.8270 C   0  0  0  0  0  0  0  0  0  0  0  0
   -6.1500   -1.9630  -17.6010 C   0  0  0  0  0  0  0  0  0  0  0  0
   -0.9720   -1.8130  -16.2080 C   0  0  0  0  0  0  0  0  0  0  0  0
   -6.7790   -2.6020  -16.4440 C   0  0  0  0  0  0  0  0  0  0  0  0
   -8.1680   -3.7370  -15.0580 N   0  0  0  0  0  0  0  0  0  0  0  0
   -7.1450   -1.6090  -18.5210 C   0  0  0  0  0  0  0  0  0  0  0  0
   -1.9590   -2.3060  -15.4260 C   0  0  0  0  0  0  0  0  0  0  0  0
  1 15  1  0
  2 12  1  0
  3  1  2  0
  3  2  1  0
  4 17  1  0
  5 14  4  0
  5  2  2  0
  6 11  1  0
  7 18  4  0
  8 10  2  0
  8  5  4  0
  9  4  2  0
 10  3  1  0
 12 19  2  0
 13  7  4  0
 13  8  4  0
 15 19  1  0
 16 14  1  0
 16  4  1  0
 16  6  1  0
 17 11  1  0
 18 14  4  0
M  END
$$$$

     RDKit          3D

 19 22  0  0  0  0  0  0  0  0999 V2000
   -1.2380   -1.5790  -17.6610 C   0  0  0  0  0  0  0  0  0  0  0  0
   -3.5850   -2.0470  -17.1590 C   0  0  0  0  0  0  0  0  0  0  0  0
   -2.5880   -1.5060  -17.9660 C   0  0  0  0  0  0  0  0  0  0  0  0
   -8.3350   -3.0770  -16.5100 C   0  0  0  0  0  0  0  0  0  0  0  0
   -4.8950   -1.7410  -17.8420 C   0  0  0  0  0  0  0  0  0  0  0  0
   -6.2910   -3.3370  -15.4970 N   0  0  0  0  0  0  0  0  0  0  0  0
   -6.7600   -0.9270  -19.6660 C   0  0  0  0  0  0  0  0  0  0  0  0
   -4.5600   -1.0850  -18.9150 N   0  0  0  0  0  0  0  0  0  0  0  0
   -9.5000   -2.6970  -17.4740 C   0  0  0  0  0  0  0  0  0  0  0  0
   -3.1710   -0.8510  -19.0310 N   0  0  0  0  0  0  0  0  0  0  0  0
   -7.2810   -4.1100  -14.8650 N   0  0  0  0  0  0  0  0  0  0  0  0
   -3.2180   -2.6000  -15.9170 C   0  0  0  0  0  0  0  0  0  0  0  0
   -5.4600   -0.6190  -19.8350 C   0  0  0  0  0  0  0  0  0  0  0  0
   -6.2930   -2.0250  -17.6040 C   0  0  0  0  0  0  0  0  0  0  0  0
   -0.8250   -2.2540  -16.5070 C   0  0  0  0  0  0  0  0  0  0  0  0
   -6.8850   -2.7750  -16.5090 C   0  0  0  0  0  0  0  0  0  0  0  0
   -8.4790   -3.8820  -15.4550 N   0  0  0  0  0  0  0  0  0  0  0  0
   -7.0800   -1.5900  -18.6010 N   0  0  0  0  0  0  0  0  0  0  0  0
   -1.8510   -2.6890  -15.5850 C   0  0  0  0  0  0  0  0  0  0  0  0
  1 15  4  0
  2 12  4  0
  3  1  4  0
  3  2  4  0
  4 16  4  0
  4 17  4  0
  5 14  4  0
  5  2  4  0
  6 11  4  0
  7 18  4  0
  8  5  4  0
  9  4  1  0
 10  8  4  0
 10  3  4  0
 12 19  4  0
 13  7  4  0
 13  8  4  0
 14 16  1  0
 15 19  4  0
 16  6  4  0
 17 11  4  0
 18 14  4  0
M  END
$$$$

     RDKit          3D

 19 22  0  0  0  0  0  0  0  0999 V2000
   -1.4950   -0.9180  -17.2940 C   0  0  0  0  0  0  0  0  0  0  0  0
   -3.7650   -1.7380  -17.0380 C   0  0  0  0  0  0  0  0  0  0  0  0
   -2.8380   -1.2630  -17.7410 C   0  0  0  0  0  0  0  0  0  0  0  0
   -8.2770   -3.0540  -16.3750 C   0  0  0  0  0  0  0  0  0  0  0  0
   -4.9990   -1.5910  -17.8450 C   0  0  0  0  0  0  0  0  0  0  0  0
   -6.2390   -3.1870  -15.5340 N   0  0  0  0  0  0  0  0  0  0  0  0
   -6.7760   -0.9880  -19.7620 C   0  0  0  0  0  0  0  0  0  0  0  0
   -4.5460   -1.0660  -18.9740 C   0  0  0  0  0  0  0  0  0  0  0  0
   -9.5780   -2.7690  -17.0740 C   0  0  0  0  0  0  0  0  0  0  0  0
   -3.1480   -0.8130  -18.8910 N   0  0  0  0  0  0  0  0  0  0  0  0
   -7.0030   -3.8810  -14.7680 N   0  0  0  0  0  0  0  0  0  0  0  0
   -3.4200   -2.2980  -15.8230 C   0  0  0  0  0  0  0  0  0  0  0  0
   -5.4650   -0.7270  -19.9850 C   0  0  0  0  0  0  0  0  0  0  0  0
   -6.3110   -1.8860  -17.6700 C   0  0  0  0  0  0  0  0  0  0  0  0
   -1.1380   -1.5250  -16.0910 C   0  0  0  0  0  0  0  0  0  0  0  0
   -6.9260   -2.6430  -16.5090 C   0  0  0  0  0  0  0  0  0  0  0  0
   -8.2880   -3.7790  -15.2750 N   0  0  0  0  0  0  0  0  0  0  0  0
   -7.2550   -1.5550  -18.6520 C   0  0  0  0  0  0  0  0  0  0  0  0
   -2.1460   -2.1960  -15.3840 C   0  0  0  0  0  0  0  0  0  0  0  0
  1 15  1  0
  2 12  1  0
  3  1  2  0
  3  2  1  0
  4 17  4  0
  5 14  4  0
  5  2  2  0
  6 11  4  0
  7 18  4  0
  8 10  2  0
  8  5  4  0
  9  4  1  0
 10  3  1  0
 12 19  2  0
 13  7  4  0
 13  8  4  0
 14 16  1  0
 15 19  1  0
 16  4  4  0
 16  6  4  0
 17 11  4  0
 18 14  4  0
M  END
$$$$

     RDKit          3D

 19 22  0  0  0  0  0  0  0  0999 V2000
   -1.2570   -1.3130  -17.7820 C   0  0  0  0  0  0  0  0  0  0  0  0
   -3.6600   -1.8980  -17.2600 C   0  0  0  0  0  0  0  0  0  0  0  0
   -2.6700   -1.4430  -18.1180 C   0  0  0  0  0  0  0  0  0  0  0  0
   -8.2420   -3.0730  -16.2650 C   0  0  0  0  0  0  0  0  0  0  0  0
   -4.9900   -1.7170  -17.9260 C   0  0  0  0  0  0  0  0  0  0  0  0
   -6.1700   -3.0560  -15.3730 N   0  0  0  0  0  0  0  0  0  0  0  0
   -6.9340   -0.8190  -19.8060 C   0  0  0  0  0  0  0  0  0  0  0  0
   -4.6280   -1.0900  -19.1290 C   0  0  0  0  0  0  0  0  0  0  0  0
   -9.1940   -2.9260  -17.0730 O   0  0  0  0  0  0  0  0  0  0  0  0
   -3.2500   -1.0090  -19.2980 N   0  0  0  0  0  0  0  0  0  0  0  0
   -7.0030   -3.6750  -14.4940 O   0  0  0  0  0  0  0  0  0  0  0  0
   -3.2180   -2.2950  -15.9490 C   0  0  0  0  0  0  0  0  0  0  0  0
   -5.5420   -0.6940  -20.0660 C   0  0  0  0  0  0  0  0  0  0  0  0
   -6.3670   -1.9120  -17.6590 C   0  0  0  0  0  0  0  0  0  0  0  0
   -0.8830   -1.8070  -16.5970 C   0  0  0  0  0  0  0  0  0  0  0  0
   -6.8550   -2.7140  -16.4280 C   0  0  0  0  0  0  0  0  0  0  0  0
   -8.3040   -3.6800  -15.0040 N   0  0  0  0  0  0  0  0  0  0  0  0
   -7.2610   -1.4560  -18.6070 C   0  0  0  0  0  0  0  0  0  0  0  0
   -1.8370   -2.2470  -15.6480 C   0  0  0  0  0  0  0  0  0  0  0  0
  1 15  1  0
  2 12  1  0
  3  1  2  0
  3  2  1  0
  4 17  4  0
  5 14  4  0
  5  2  2  0
  6 11  4  0
  7 18  4  0
  8  5  4  0
  9  4  2  0
 10  8  2  0
 10  3  1  0
 12 19  2  0
 13  7  4  0
 13  8  4  0
 14 16  1  0
 15 19  1  0
 16  4  4  0
 16  6  4  0
 17 11  4  0
 18 14  4  0
M  END
$$$$

     RDKit          3D

 19 22  0  0  0  0  0  0  0  0999 V2000
   -1.2070   -1.7000  -17.6230 C   0  0  0  0  0  0  0  0  0  0  0  0
   -3.8160   -1.9900  -17.2130 C   0  0  0  0  0  0  0  0  0  0  0  0
   -2.6230   -1.7920  -18.0390 C   0  0  0  0  0  0  0  0  0  0  0  0
   -8.2860   -3.4320  -16.3510 C   0  0  0  0  0  0  0  0  0  0  0  0
   -4.9690   -1.8750  -18.0280 C   0  0  0  0  0  0  0  0  0  0  0  0
   -6.1530   -3.5110  -15.7130 N   0  0  0  0  0  0  0  0  0  0  0  0
   -6.8470   -0.8770  -19.8380 C   0  0  0  0  0  0  0  0  0  0  0  0
   -4.5470   -1.2660  -19.1950 C   0  0  0  0  0  0  0  0  0  0  0  0
   -9.4670   -3.1820  -17.1430 N   0  0  0  0  0  0  0  0  0  0  0  0
   -3.1470   -1.2750  -19.1810 N   0  0  0  0  0  0  0  0  0  0  0  0
   -6.9080   -4.1800  -14.8520 N   0  0  0  0  0  0  0  0  0  0  0  0
   -3.6770   -2.0480  -15.7150 C   0  0  0  0  0  0  0  0  0  0  0  0
   -5.4910   -0.7570  -20.1120 C   0  0  0  0  0  0  0  0  0  0  0  0
   -6.3750   -2.1890  -17.7550 C   0  0  0  0  0  0  0  0  0  0  0  0
   -1.2440   -1.6770  -16.0510 C   0  0  0  0  0  0  0  0  0  0  0  0
   -6.9670   -3.0310  -16.6680 C   0  0  0  0  0  0  0  0  0  0  0  0
   -8.2350   -4.1690  -15.2450 N   0  0  0  0  0  0  0  0  0  0  0  0
   -7.2900   -1.4830  -18.6630 C   0  0  0  0  0  0  0  0  0  0  0  0
   -2.2540   -2.6690  -15.5750 C   0  0  0  0  0  0  0  0  0  0  0  0
  1 15  1  0
  2 12  1  0
  3  1  1  0
  3  2  1  0
  4 17  4  0
  5 14  4  0
  5  2  1  0
  6 11  4  0
  7 18  4  0
  8 10  1  0
  8  5  4  0
  9  4  1  0
 10  3  1  0
 12 19  1  0
 13  7  4  0
 13  8  4  0
 14 16  1  0
 15 19  1  0
 16  4  4  0
 16  6  4  0
 17 11  4  0
 18 14  4  0
M  END
$$$$

     RDKit          3D

 19 22  0  0  0  0  0  0  0  0999 V2000
   -1.2400   -1.4220  -17.6740 C   0  0  0  0  0  0  0  0  0  0  0  0
   -3.6670   -1.9600  -17.2060 C   0  0  0  0  0  0  0  0  0  0  0  0
   -2.6130   -1.3990  -18.0550 C   0  0  0  0  0  0  0  0  0  0  0  0
   -8.4080   -3.3460  -16.5330 C   0  0  0  0  0  0  0  0  0  0  0  0
   -5.0340   -1.7640  -17.9130 C   0  0  0  0  0  0  0  0  0  0  0  0
   -6.3000   -3.3820  -15.5090 C   0  0  0  0  0  0  0  0  0  0  0  0
   -6.8130   -0.7160  -19.8070 C   0  0  0  0  0  0  0  0  0  0  0  0
   -4.6230   -1.0190  -19.2270 C   0  0  0  0  0  0  0  0  0  0  0  0
   -9.4310   -3.2430  -17.3730 O   0  0  0  0  0  0  0  0  0  0  0  0
   -3.1930   -0.9370  -19.2730 N   0  0  0  0  0  0  0  0  0  0  0  0
   -7.2440   -4.1580  -14.7980 N   0  0  0  0  0  0  0  0  0  0  0  0
   -3.2260   -2.5650  -15.9670 C   0  0  0  0  0  0  0  0  0  0  0  0
   -5.5240   -0.5260  -20.0720 N   0  0  0  0  0  0  0  0  0  0  0  0
   -6.4840   -1.9780  -17.7820 C   0  0  0  0  0  0  0  0  0  0  0  0
   -0.9260   -1.7480  -16.3990 C   0  0  0  0  0  0  0  0  0  0  0  0
   -7.0390   -2.9410  -16.5880 C   0  0  0  0  0  0  0  0  0  0  0  0
   -8.4730   -4.0340  -15.3800 N   0  0  0  0  0  0  0  0  0  0  0  0
   -7.3550   -1.4210  -18.7500 C   0  0  0  0  0  0  0  0  0  0  0  0
   -1.9420   -2.4590  -15.5930 C   0  0  0  0  0  0  0  0  0  0  0  0
  1 15  4  0
  2 12  4  0
  3  1  4  0
  3  2  4  0
  4 17  1  0
  5  8  1  0
  5 14  1  0
  5  2  1  0
  6 11  1  0
  7 18  1  0
  9  4  2  0
 10  8  2  0
 10  3  1  0
 12 19  4  0
 13  7  2  0
 13  8  1  0
 14 16  1  0
 15 19  4  0
 16  4  1  0
 16  6  2  0
 17 11  2  0
 18 14  2  0
M  END
$$$$

     RDKit          3D

 19 22  0  0  0  0  0  0  0  0999 V2000
   -1.4520   -1.2820  -17.4000 C   0  0  0  0  0  0  0  0  0  0  0  0
   -3.7430   -1.7870  -16.9710 C   0  0  0  0  0  0  0  0  0  0  0  0
   -2.7950   -1.2380  -17.8110 C   0  0  0  0  0  0  0  0  0  0  0  0
   -8.2640   -2.9630  -16.1620 C   0  0  0  0  0  0  0  0  0  0  0  0
   -5.0080   -1.6860  -17.7700 C   0  0  0  0  0  0  0  0  0  0  0  0
   -6.1960   -3.1310  -15.3830 C   0  0  0  0  0  0  0  0  0  0  0  0
   -6.8640   -1.0690  -19.7710 C   0  0  0  0  0  0  0  0  0  0  0  0
   -4.6220   -1.1050  -18.9850 C   0  0  0  0  0  0  0  0  0  0  0  0
   -9.3820   -2.7710  -16.8930 N   0  0  0  0  0  0  0  0  0  0  0  0
   -3.2810   -0.8610  -19.0170 N   0  0  0  0  0  0  0  0  0  0  0  0
   -7.0120   -3.7260  -14.4610 N   0  0  0  0  0  0  0  0  0  0  0  0
   -3.3810   -2.2680  -15.7490 C   0  0  0  0  0  0  0  0  0  0  0  0
   -5.5290   -0.7800  -20.0380 C   0  0  0  0  0  0  0  0  0  0  0  0
   -6.3510   -2.0230  -17.5890 C   0  0  0  0  0  0  0  0  0  0  0  0
   -1.1260   -1.6680  -16.1430 C   0  0  0  0  0  0  0  0  0  0  0  0
   -6.8690   -2.6560  -16.4420 C   0  0  0  0  0  0  0  0  0  0  0  0
   -8.3710   -3.5850  -14.9830 N   0  0  0  0  0  0  0  0  0  0  0  0
   -7.3050   -1.6840  -18.6480 C   0  0  0  0  0  0  0  0  0  0  0  0
   -2.0800   -2.1830  -15.3670 C   0  0  0  0  0  0  0  0  0  0  0  0
  1 15  1  0
  2 12  1  0
  3  1  2  0
  3  2  1  0
  4 17  4  0
  5 14  4  0
  5  2  2  0
  6 11  4  0
  7 18  4  0
  8  5  4  0
  9  4  1  0
 10  8  2  0
 10  3  1  0
 12 19  2  0
 13  7  4  0
 13  8  4  0
 14 16  1  0
 15 19  1  0
 16  4  4  0
 16  6  4  0
 17 11  4  0
 18 14  4  0
M  END
$$$$

     RDKit          3D

 19 22  0  0  0  0  0  0  0  0999 V2000
   -1.3770   -1.2990  -17.2750 C   0  0  0  0  0  0  0  0  0  0  0  0
   -3.7370   -2.0580  -17.1350 C   0  0  0  0  0  0  0  0  0  0  0  0
   -2.7070   -1.5910  -17.8800 C   0  0  0  0  0  0  0  0  0  0  0  0
   -8.2870   -3.1870  -16.3620 C   0  0  0  0  0  0  0  0  0  0  0  0
   -4.9510   -1.8210  -17.7690 C   0  0  0  0  0  0  0  0  0  0  0  0
   -6.1140   -3.3200  -15.3880 N   0  0  0  0  0  0  0  0  0  0  0  0
   -6.7850   -0.7980  -19.4290 C   0  0  0  0  0  0  0  0  0  0  0  0
   -4.7320   -1.1070  -18.8720 C   0  0  0  0  0  0  0  0  0  0  0  0
   -9.5960   -2.8080  -17.3350 S   0  0  0  0  0  0  0  0  0  0  0  0
   -3.0060   -0.8900  -19.1560 S   0  0  0  0  0  0  0  0  0  0  0  0
   -6.9910   -4.0260  -14.7990 N   0  0  0  0  0  0  0  0  0  0  0  0
   -3.2890   -2.9520  -15.8550 C   0  0  0  0  0  0  0  0  0  0  0  0
   -5.5920   -0.6530  -19.6530 N   0  0  0  0  0  0  0  0  0  0  0  0
   -6.3090   -2.0140  -17.5720 C   0  0  0  0  0  0  0  0  0  0  0  0
   -1.2160   -1.8130  -16.2330 C   0  0  0  0  0  0  0  0  0  0  0  0
   -6.5910   -2.7620  -16.4710 C   0  0  0  0  0  0  0  0  0  0  0  0
   -8.2280   -3.9390  -15.3130 N   0  0  0  0  0  0  0  0  0  0  0  0
   -7.2470   -1.4520  -18.3190 N   0  0  0  0  0  0  0  0  0  0  0  0
   -2.2570   -2.3480  -15.1660 C   0  0  0  0  0  0  0  0  0  0  0  0
  1 15  1  0
  2 12  1  0
  3  1  1  0
  3  2  4  0
  4 17  1  0
  5 14  4  0
  5  2  4  0
  6 11  1  0
  7 18  4  0
  8  5  4  0
  9  4  2  0
 10  8  4  0
 10  3  4  0
 12 19  1  0
 13  7  4  0
 13  8  4  0
 14 16  1  0
 15 19  1  0
 16  4  1  0
 16  6  2  0
 17 11  2  0
 18 14  4  0
M  END
$$$$

     RDKit          3D

 19 22  0  0  0  0  0  0  0  0999 V2000
   -1.2640   -1.5000  -17.5650 C   0  0  0  0  0  0  0  0  0  0  0  0
   -3.7000   -1.8650  -16.9950 C   0  0  0  0  0  0  0  0  0  0  0  0
   -2.6230   -1.4220  -17.8840 C   0  0  0  0  0  0  0  0  0  0  0  0
   -8.3570   -3.0140  -16.2860 C   0  0  0  0  0  0  0  0  0  0  0  0
   -4.9810   -1.6990  -17.7860 C   0  0  0  0  0  0  0  0  0  0  0  0
   -6.1580   -3.4090  -15.5260 C   0  0  0  0  0  0  0  0  0  0  0  0
   -6.9010   -0.8610  -19.6760 C   0  0  0  0  0  0  0  0  0  0  0  0
   -4.6520   -0.9900  -18.9210 C   0  0  0  0  0  0  0  0  0  0  0  0
   -9.3820   -2.6890  -16.8980 O   0  0  0  0  0  0  0  0  0  0  0  0
   -3.2880   -0.8490  -18.9950 N   0  0  0  0  0  0  0  0  0  0  0  0
   -7.0500   -3.9470  -14.6020 N   0  0  0  0  0  0  0  0  0  0  0  0
   -3.3040   -2.3260  -15.7390 C   0  0  0  0  0  0  0  0  0  0  0  0
   -5.6140   -0.5810  -19.9090 C   0  0  0  0  0  0  0  0  0  0  0  0
   -6.4170   -1.9890  -17.5750 C   0  0  0  0  0  0  0  0  0  0  0  0
   -0.9720   -1.7690  -16.2620 C   0  0  0  0  0  0  0  0  0  0  0  0
   -6.9560   -2.6830  -16.4340 C   0  0  0  0  0  0  0  0  0  0  0  0
   -8.3880   -3.6870  -15.0700 N   0  0  0  0  0  0  0  0  0  0  0  0
   -7.3260   -1.5340  -18.5500 C   0  0  0  0  0  0  0  0  0  0  0  0
   -1.9870   -2.1680  -15.3640 C   0  0  0  0  0  0  0  0  0  0  0  0
  1 15  1  0
  2 12  1  0
  3  1  2  0
  3  2  1  0
  4 17  1  0
  5 14  4  0
  5  2  2  0
  6 11  1  0
  7 18  4  0
  8  5  4  0
  9  4  2  0
 10  8  2  0
 10  3  1  0
 12 19  2  0
 13  7  4  0
 13  8  4  0
 15 19  1  0
 16 14  1  0
 16  4  1  0
 16  6  1  0
 17 11  1  0
 18 14  4  0
M  END
$$$$
