
     RDKit          3D

 22 25  0  0  0  0  0  0  0  0999 V2000
   -2.3340   -0.9520  -19.7020 C   0  0  0  0  0  0  0  0  0  0  0  0
   -2.6920   -2.0030  -15.7410 O   0  0  0  0  0  0  0  0  0  0  0  0
   -3.6160   -1.3680  -19.1340 N   0  0  0  0  0  0  0  0  0  0  0  0
   -1.2520   -1.7980  -19.0050 C   0  0  0  0  0  0  0  0  0  0  0  0
    0.1360   -1.7550  -19.2600 C   0  0  0  0  0  0  0  0  0  0  0  0
   -2.5430   -1.6790  -16.9480 C   0  0  0  0  0  0  0  0  0  0  0  0
   -3.7380   -1.0320  -17.7260 C   0  0  0  0  0  0  0  0  0  0  0  0
   -9.6180   -3.1440  -16.8480 C   0  0  0  0  0  0  0  0  0  0  0  0
   -7.1860   -3.4370  -15.5890 C   0  0  0  0  0  0  0  0  0  0  0  0
  -10.9960   -2.8400  -17.4490 C   0  0  0  0  0  0  0  0  0  0  0  0
   -6.2770   -1.8260  -17.3470 C   0  0  0  0  0  0  0  0  0  0  0  0
   -9.5010   -4.0580  -15.8900 C   0  0  0  0  0  0  0  0  0  0  0  0
   -8.2780   -4.1880  -15.2430 C   0  0  0  0  0  0  0  0  0  0  0  0
   -0.2340   -2.2540  -16.9950 C   0  0  0  0  0  0  0  0  0  0  0  0
    0.8170   -1.9950  -17.9990 C   0  0  0  0  0  0  0  0  0  0  0  0
   -8.3300   -1.4440  -18.2170 N   0  0  0  0  0  0  0  0  0  0  0  0
   -6.9910   -1.1850  -18.3150 C   0  0  0  0  0  0  0  0  0  0  0  0
   -1.5080   -2.0550  -17.6560 N   0  0  0  0  0  0  0  0  0  0  0  0
   -5.0380   -1.7380  -17.1270 C   0  0  0  0  0  0  0  0  0  0  0  0
   -4.5000   -0.6530  -20.0420 C   0  0  0  0  0  0  0  0  0  0  0  0
   -8.5500   -2.4590  -17.2460 C   0  0  0  0  0  0  0  0  0  0  0  0
   -7.2460   -2.6050  -16.6370 C   0  0  0  0  0  0  0  0  0  0  0  0
  1  3  1  0
  1  4  1  0
  3  7  1  0
  4 18  4  0
  5  4  4  0
  5 15  4  0
  6  2  2  0
  7 19  1  0
  7  6  1  0
  8 12  1  0
  9 13  2  0
 10  8  1  0
 11 19  1  0
 11 22  2  0
 12 13  1  0
 15 14  4  0
 16 21  1  0
 17 16  2  0
 17 11  1  0
 18 14  4  0
 18  6  1  0
 20  3  1  0
 21  8  2  0
 21 22  1  0
 22  9  1  0
M  END
$$$$

     RDKit          3D

 22 26  0  0  0  0  0  0  0  0999 V2000
   -2.5260   -1.0520  -19.5760 C   0  0  0  0  0  0  0  0  0  0  0  0
   -2.3470   -2.3560  -15.6990 O   0  0  0  0  0  0  0  0  0  0  0  0
   -3.7460   -0.7130  -18.5810 C   0  0  0  0  0  0  0  0  0  0  0  0
   -1.6690   -1.7520  -19.1130 C   0  0  0  0  0  0  0  0  0  0  0  0
   -0.3560   -2.3420  -19.4720 C   0  0  0  0  0  0  0  0  0  0  0  0
   -2.6270   -2.1230  -16.8730 C   0  0  0  0  0  0  0  0  0  0  0  0
   -3.8320   -1.5280  -17.4410 C   0  0  0  0  0  0  0  0  0  0  0  0
   -9.6150   -3.0810  -17.2990 C   0  0  0  0  0  0  0  0  0  0  0  0
   -7.3600   -3.4320  -15.6740 C   0  0  0  0  0  0  0  0  0  0  0  0
  -10.7260   -2.9540  -18.1570 C   0  0  0  0  0  0  0  0  0  0  0  0
   -6.2280   -1.7290  -17.1500 C   0  0  0  0  0  0  0  0  0  0  0  0
   -9.6070   -4.0350  -16.2750 C   0  0  0  0  0  0  0  0  0  0  0  0
   -8.4460   -4.2120  -15.4200 C   0  0  0  0  0  0  0  0  0  0  0  0
   -0.2520   -2.3760  -17.8990 C   0  0  0  0  0  0  0  0  0  0  0  0
    0.4670   -1.2150  -17.2240 C   0  0  0  0  0  0  0  0  0  0  0  0
   -8.1460   -1.2410  -18.2290 N   0  0  0  0  0  0  0  0  0  0  0  0
   -6.8310   -0.9000  -18.1060 C   0  0  0  0  0  0  0  0  0  0  0  0
   -1.7100   -2.1830  -17.7150 N   0  0  0  0  0  0  0  0  0  0  0  0
   -4.9350   -1.6320  -16.7260 N   0  0  0  0  0  0  0  0  0  0  0  0
   -4.7750   -0.5600  -19.5040 F   0  0  0  0  0  0  0  0  0  0  0  0
   -8.4280   -2.3090  -17.4220 C   0  0  0  0  0  0  0  0  0  0  0  0
   -7.2820   -2.5360  -16.6430 C   0  0  0  0  0  0  0  0  0  0  0  0
  1  3  1  0
  3 20  1  0
  3  7  1  0
  4  1  1  0
  4 14  1  0
  4 18  1  0
  5  4  1  0
  5 14  1  0
  6  2  2  0
  7  6  1  0
  7 19  1  0
  8 12  1  0
  9 13  2  0
 10  8  1  0
 11 19  1  0
 11 22  2  0
 12 13  1  0
 14 18  1  0
 14 15  1  0
 16 17  2  0
 16 21  1  0
 17 11  1  0
 18  6  1  0
 21  8  2  0
 21 22  1  0
 22  9  1  0
M  END
$$$$

     RDKit          3D

 22 26  0  0  0  0  0  0  0  0999 V2000
   -2.6930   -0.7810  -19.5790 C   0  0  0  0  0  0  0  0  0  0  0  0
   -2.4390   -2.5050  -16.0210 O   0  0  0  0  0  0  0  0  0  0  0  0
   -3.9000   -1.1540  -18.8170 C   0  0  0  0  0  0  0  0  0  0  0  0
   -1.6110   -1.1830  -19.0090 C   0  0  0  0  0  0  0  0  0  0  0  0
   -0.0880   -0.9960  -19.6790 S   0  0  0  0  0  0  0  0  0  0  0  0
   -2.5490   -1.9810  -17.1070 C   0  0  0  0  0  0  0  0  0  0  0  0
   -3.8000   -1.6230  -17.5640 C   0  0  0  0  0  0  0  0  0  0  0  0
   -9.4800   -2.9840  -17.3250 C   0  0  0  0  0  0  0  0  0  0  0  0
   -7.3990   -3.3280  -15.5080 C   0  0  0  0  0  0  0  0  0  0  0  0
  -10.8620   -2.7520  -18.2360 Cl  0  0  0  0  0  0  0  0  0  0  0  0
   -6.0490   -1.9800  -17.3170 C   0  0  0  0  0  0  0  0  0  0  0  0
   -9.6630   -3.6730  -16.1650 C   0  0  0  0  0  0  0  0  0  0  0  0
   -8.6130   -3.8150  -15.2030 C   0  0  0  0  0  0  0  0  0  0  0  0
   -0.3940   -2.5410  -17.5740 C   0  0  0  0  0  0  0  0  0  0  0  0
    0.6570   -1.7000  -18.1510 C   0  0  0  0  0  0  0  0  0  0  0  0
   -7.9060   -1.4050  -18.4320 N   0  0  0  0  0  0  0  0  0  0  0  0
   -6.3540   -1.2970  -18.5110 C   0  0  0  0  0  0  0  0  0  0  0  0
   -1.5960   -1.7620  -17.9420 N   0  0  0  0  0  0  0  0  0  0  0  0
   -4.8900   -1.9850  -16.7680 C   0  0  0  0  0  0  0  0  0  0  0  0
   -5.1550   -0.9510  -19.2760 C   0  0  0  0  0  0  0  0  0  0  0  0
   -8.2850   -2.2820  -17.5550 C   0  0  0  0  0  0  0  0  0  0  0  0
   -7.1240   -2.5530  -16.7160 C   0  0  0  0  0  0  0  0  0  0  0  0
  1  4  4  0
  1  3  4  0
  3  7  4  0
  4 18  4  0
  5  4  1  0
  5 15  1  0
  6  2  2  0
  7  6  4  0
  7 19  4  0
  8 12  4  0
  9 13  4  0
 10  8  1  0
 11 19  4  0
 11 22  4  0
 12 13  4  0
 15 14  1  0
 16 21  4  0
 17 16  4  0
 17 11  4  0
 18 14  1  0
 18  6  4  0
 20  3  4  0
 20 17  4  0
 21  8  4  0
 21 22  4  0
 22  9  4  0
M  END
$$$$

     RDKit          3D

 22 25  0  0  0  0  0  0  0  0999 V2000
   -2.5560   -0.8680  -19.5890 C   0  0  0  0  0  0  0  0  0  0  0  0
   -2.5240   -2.9710  -15.6310 Cl  0  0  0  0  0  0  0  0  0  0  0  0
   -3.8200   -1.0630  -18.9050 C   0  0  0  0  0  0  0  0  0  0  0  0
   -1.4650   -1.3260  -19.0350 C   0  0  0  0  0  0  0  0  0  0  0  0
   -0.0690   -1.2490  -19.5440 C   0  0  0  0  0  0  0  0  0  0  0  0
   -2.6650   -2.0980  -17.1470 C   0  0  0  0  0  0  0  0  0  0  0  0
   -3.8360   -1.5800  -17.6390 C   0  0  0  0  0  0  0  0  0  0  0  0
   -9.7120   -3.0340  -16.9430 C   0  0  0  0  0  0  0  0  0  0  0  0
   -7.3290   -3.4960  -15.6270 C   0  0  0  0  0  0  0  0  0  0  0  0
  -10.9120   -2.7740  -17.5410 O   0  0  0  0  0  0  0  0  0  0  0  0
   -6.3230   -1.8150  -17.3070 C   0  0  0  0  0  0  0  0  0  0  0  0
   -9.6180   -3.8900  -15.8170 C   0  0  0  0  0  0  0  0  0  0  0  0
   -8.4150   -4.0800  -15.2790 C   0  0  0  0  0  0  0  0  0  0  0  0
   -0.2520   -2.6890  -17.5000 C   0  0  0  0  0  0  0  0  0  0  0  0
    0.6650   -1.6340  -18.0380 C   0  0  0  0  0  0  0  0  0  0  0  0
   -8.2280   -1.5880  -18.4290 N   0  0  0  0  0  0  0  0  0  0  0  0
   -6.9470   -1.2700  -18.3380 N   0  0  0  0  0  0  0  0  0  0  0  0
   -1.5030   -1.9590  -17.8320 C   0  0  0  0  0  0  0  0  0  0  0  0
   -4.9530   -1.5430  -16.7210 C   0  0  0  0  0  0  0  0  0  0  0  0
   -4.8920   -0.5850  -20.0610 Cl  0  0  0  0  0  0  0  0  0  0  0  0
   -8.5280   -2.4060  -17.3910 C   0  0  0  0  0  0  0  0  0  0  0  0
   -7.3050   -2.6460  -16.6970 C   0  0  0  0  0  0  0  0  0  0  0  0
  1  4  4  0
  1  3  4  0
  3  7  4  0
  4 18  4  0
  5  4  1  0
  5 15  1  0
  6  2  1  0
  7  6  4  0
  7 19  1  0
  8 12  1  0
  9 13  2  0
 10  8  1  0
 11 19  1  0
 11 22  2  0
 12 13  1  0
 15 14  1  0
 16 17  2  0
 16 21  1  0
 17 11  1  0
 18 14  1  0
 18  6  4  0
 20  3  1  0
 21  8  2  0
 21 22  1  0
 22  9  1  0
M  END
$$$$

     RDKit          3D

 22 25  0  0  0  0  0  0  0  0999 V2000
   -2.5130   -1.0290  -19.5540 C   0  0  0  0  0  0  0  0  0  0  0  0
   -2.6200   -2.3460  -15.4250 C   0  0  0  0  0  0  0  0  0  0  0  0
   -3.6900   -1.1430  -18.8630 C   0  0  0  0  0  0  0  0  0  0  0  0
   -1.4150   -1.5050  -18.8640 C   0  0  0  0  0  0  0  0  0  0  0  0
   -0.0190   -1.7150  -19.2860 C   0  0  0  0  0  0  0  0  0  0  0  0
   -2.7040   -1.9970  -16.9050 C   0  0  0  0  0  0  0  0  0  0  0  0
   -3.8130   -1.5880  -17.6130 C   0  0  0  0  0  0  0  0  0  0  0  0
   -9.5520   -3.2790  -16.8780 C   0  0  0  0  0  0  0  0  0  0  0  0
   -7.0770   -3.7660  -15.4940 C   0  0  0  0  0  0  0  0  0  0  0  0
  -10.9030   -3.1270  -17.6490 C   0  0  0  0  0  0  0  0  0  0  0  0
   -6.2960   -1.8600  -17.1600 C   0  0  0  0  0  0  0  0  0  0  0  0
   -9.4170   -4.2820  -15.9430 N   0  0  0  0  0  0  0  0  0  0  0  0
   -8.2020   -4.4920  -15.3050 C   0  0  0  0  0  0  0  0  0  0  0  0
   -0.3340   -2.7270  -17.3190 O   0  0  0  0  0  0  0  0  0  0  0  0
    0.5860   -2.3260  -18.1940 C   0  0  0  0  0  0  0  0  0  0  0  0
   -8.3410   -1.5010  -18.1100 N   0  0  0  0  0  0  0  0  0  0  0  0
   -7.0550   -1.0890  -18.0230 C   0  0  0  0  0  0  0  0  0  0  0  0
   -1.4610   -1.9430  -17.5890 C   0  0  0  0  0  0  0  0  0  0  0  0
   -4.9690   -1.7790  -16.8080 N   0  0  0  0  0  0  0  0  0  0  0  0
   -4.7780   -0.7130  -19.7220 F   0  0  0  0  0  0  0  0  0  0  0  0
   -8.4430   -2.4860  -17.2740 C   0  0  0  0  0  0  0  0  0  0  0  0
   -7.1670   -2.7410  -16.5500 C   0  0  0  0  0  0  0  0  0  0  0  0
  1  4  4  0
  1  3  4  0
  3  7  4  0
  4 18  4  0
  5  4  1  0
  5 15  1  0
  6  2  1  0
  7  6  4  0
  7 19  1  0
  8 12  4  0
  9 13  4  0
 10  8  1  0
 11 19  1  0
 11 22  4  0
 12 13  4  0
 15 14  1  0
 16 17  4  0
 16 21  4  0
 17 11  4  0
 18 14  1  0
 18  6  4  0
 20  3  1  0
 21  8  4  0
 21 22  1  0
 22  9  4  0
M  END
$$$$

     RDKit          3D

 22 25  0  0  0  0  0  0  0  0999 V2000
   -2.5760   -1.0080  -19.8830 C   0  0  0  0  0  0  0  0  0  0  0  0
   -2.6670   -2.9220  -16.2980 O   0  0  0  0  0  0  0  0  0  0  0  0
   -3.7560   -1.0130  -19.0980 C   0  0  0  0  0  0  0  0  0  0  0  0
   -1.4600   -1.6340  -19.3980 C   0  0  0  0  0  0  0  0  0  0  0  0
   -0.1700   -1.6810  -20.1000 C   0  0  0  0  0  0  0  0  0  0  0  0
   -2.6580   -2.2870  -17.3210 C   0  0  0  0  0  0  0  0  0  0  0  0
   -3.8130   -1.5910  -17.8130 C   0  0  0  0  0  0  0  0  0  0  0  0
   -9.6670   -2.8090  -16.7850 C   0  0  0  0  0  0  0  0  0  0  0  0
   -7.1390   -3.3450  -15.6480 N   0  0  0  0  0  0  0  0  0  0  0  0
  -10.7820   -2.5770  -17.4010 N   0  0  0  0  0  0  0  0  0  0  0  0
   -6.3100   -1.6220  -17.3150 N   0  0  0  0  0  0  0  0  0  0  0  0
   -9.5580   -3.6830  -15.7580 N   0  0  0  0  0  0  0  0  0  0  0  0
   -8.3690   -3.8990  -15.3500 C   0  0  0  0  0  0  0  0  0  0  0  0
   -0.1810   -2.7580  -17.8980 C   0  0  0  0  0  0  0  0  0  0  0  0
    0.6310   -1.5410  -18.8990 C   0  0  0  0  0  0  0  0  0  0  0  0
   -8.2640   -1.2880  -18.3400 N   0  0  0  0  0  0  0  0  0  0  0  0
   -6.9300   -1.0520  -18.3120 C   0  0  0  0  0  0  0  0  0  0  0  0
   -1.5330   -2.2020  -18.1610 N   0  0  0  0  0  0  0  0  0  0  0  0
   -4.9950   -1.3750  -16.9140 C   0  0  0  0  0  0  0  0  0  0  0  0
   -4.8410   -0.5630  -19.7600 F   0  0  0  0  0  0  0  0  0  0  0  0
   -8.4710   -2.1480  -17.3700 C   0  0  0  0  0  0  0  0  0  0  0  0
   -7.2150   -2.3820  -16.7120 C   0  0  0  0  0  0  0  0  0  0  0  0
  1  4  1  0
  1  3  2  0
  3  7  1  0
  4  5  1  0
  4 18  1  0
  5 15  1  0
  6  2  2  0
  7  6  1  0
  7 19  1  0
  8 12  4  0
  9 13  4  0
 10  8  1  0
 11 19  1  0
 11 22  4  0
 12 13  4  0
 15 14  1  0
 16 17  4  0
 16 21  4  0
 17 11  4  0
 18 14  1  0
 18  6  1  0
 20  3  1  0
 21  8  4  0
 21 22  4  0
 22  9  4  0
M  END
$$$$

     RDKit          3D

 22 25  0  0  0  0  0  0  0  0999 V2000
   -2.2210   -1.0410  -19.7120 C   0  0  0  0  0  0  0  0  0  0  0  0
   -2.2230   -2.6740  -15.7310 C   0  0  0  0  0  0  0  0  0  0  0  0
   -3.4740   -0.8990  -18.8740 C   0  0  0  0  0  0  0  0  0  0  0  0
   -1.3290   -2.0840  -19.4180 C   0  0  0  0  0  0  0  0  0  0  0  0
    0.1290   -1.5860  -19.7260 C   0  0  0  0  0  0  0  0  0  0  0  0
   -2.2870   -2.0970  -17.0990 C   0  0  0  0  0  0  0  0  0  0  0  0
   -3.5010   -1.6220  -17.6100 C   0  0  0  0  0  0  0  0  0  0  0  0
   -9.3720   -3.0160  -17.0030 C   0  0  0  0  0  0  0  0  0  0  0  0
   -6.9510   -3.4470  -15.6320 C   0  0  0  0  0  0  0  0  0  0  0  0
  -10.4700   -2.8420  -17.6550 O   0  0  0  0  0  0  0  0  0  0  0  0
   -5.9870   -1.8380  -17.2360 C   0  0  0  0  0  0  0  0  0  0  0  0
   -9.2590   -3.8990  -16.0010 N   0  0  0  0  0  0  0  0  0  0  0  0
   -8.0950   -4.1160  -15.4080 C   0  0  0  0  0  0  0  0  0  0  0  0
    0.2000   -2.3940  -17.5370 C   0  0  0  0  0  0  0  0  0  0  0  0
    0.7840   -1.0820  -18.3270 C   0  0  0  0  0  0  0  0  0  0  0  0
   -8.0210   -1.4730  -18.3900 N   0  0  0  0  0  0  0  0  0  0  0  0
   -6.6480   -1.2250  -18.3230 C   0  0  0  0  0  0  0  0  0  0  0  0
   -1.2070   -2.2560  -17.8980 N   0  0  0  0  0  0  0  0  0  0  0  0
   -4.7160   -1.7070  -16.8690 C   0  0  0  0  0  0  0  0  0  0  0  0
   -4.3210   -0.1670  -19.3010 O   0  0  0  0  0  0  0  0  0  0  0  0
   -8.2140   -2.3440  -17.4100 C   0  0  0  0  0  0  0  0  0  0  0  0
   -7.0560   -2.5890  -16.6980 C   0  0  0  0  0  0  0  0  0  0  0  0
  1  4  1  0
  1  3  1  0
  3  7  1  0
  4  5  1  0
  4 18  1  0
  5 15  1  0
  6  2  1  0
  7  6  1  0
  7 19  1  0
  8 12  1  0
  9 13  1  0
 10  8  2  0
 11 19  1  0
 11 22  1  0
 12 13  2  0
 15 14  1  0
 16 17  1  0
 16 21  2  0
 17 11  2  0
 18 14  1  0
 18  6  1  0
 20  3  2  0
 21  8  1  0
 21 22  1  0
 22  9  2  0
M  END
$$$$

     RDKit          3D

 22 24  0  0  0  0  0  0  0  0999 V2000
   -2.6410   -0.9550  -19.7220 C   0  0  0  0  0  0  0  0  0  0  0  0
   -2.5170   -1.9770  -15.4190 C   0  0  0  0  0  0  0  0  0  0  0  0
   -3.8150   -0.9510  -18.9550 C   0  0  0  0  0  0  0  0  0  0  0  0
   -1.4540   -1.2770  -19.0860 C   0  0  0  0  0  0  0  0  0  0  0  0
   -0.4840   -2.1010  -19.9570 C   0  0  0  0  0  0  0  0  0  0  0  0
   -2.6030   -1.6520  -16.9080 C   0  0  0  0  0  0  0  0  0  0  0  0
   -3.8290   -1.2390  -17.5680 C   0  0  0  0  0  0  0  0  0  0  0  0
   -9.5770   -3.0240  -16.9390 C   0  0  0  0  0  0  0  0  0  0  0  0
   -7.0750   -3.6470  -15.7260 N   0  0  0  0  0  0  0  0  0  0  0  0
  -10.7180   -2.7630  -17.3730 O   0  0  0  0  0  0  0  0  0  0  0  0
   -6.2190   -1.8990  -17.1700 C   0  0  0  0  0  0  0  0  0  0  0  0
   -9.4070   -4.0440  -16.0210 N   0  0  0  0  0  0  0  0  0  0  0  0
   -8.2510   -4.2940  -15.4250 C   0  0  0  0  0  0  0  0  0  0  0  0
   -0.1950   -1.7280  -17.2090 O   0  0  0  0  0  0  0  0  0  0  0  0
    1.1580   -1.4550  -17.5300 C   0  0  0  0  0  0  0  0  0  0  0  0
   -8.2330   -1.3160  -18.1850 N   0  0  0  0  0  0  0  0  0  0  0  0
   -6.8720   -1.1110  -18.1070 N   0  0  0  0  0  0  0  0  0  0  0  0
   -1.4420   -1.6410  -17.7210 C   0  0  0  0  0  0  0  0  0  0  0  0
   -4.8370   -1.9920  -16.9580 C   0  0  0  0  0  0  0  0  0  0  0  0
   -5.1230   -0.4770  -19.9180 Cl  0  0  0  0  0  0  0  0  0  0  0  0
   -8.4160   -2.3220  -17.3140 C   0  0  0  0  0  0  0  0  0  0  0  0
   -7.2360   -2.6610  -16.6590 C   0  0  0  0  0  0  0  0  0  0  0  0
  1  4  4  0
  1  3  4  0
  3  7  4  0
  4 18  4  0
  5  4  1  0
  6  2  1  0
  7 19  1  0
  7  6  4  0
  8 12  1  0
  9 13  1  0
 10  8  2  0
 11 19  1  0
 11 22  1  0
 12 13  2  0
 15 14  1  0
 16 17  1  0
 16 21  2  0
 17 11  2  0
 18 14  1  0
 18  6  4  0
 20  3  1  0
 21  8  1  0
 21 22  1  0
 22  9  2  0
M  END
$$$$

     RDKit          3D

 22 25  0  0  0  0  0  0  0  0999 V2000
   -2.3780   -0.8130  -19.7300 C   0  0  0  0  0  0  0  0  0  0  0  0
   -2.6120   -2.3740  -15.8530 O   0  0  0  0  0  0  0  0  0  0  0  0
   -3.6480   -1.0060  -18.9980 C   0  0  0  0  0  0  0  0  0  0  0  0
   -1.3830   -1.8530  -19.1990 C   0  0  0  0  0  0  0  0  0  0  0  0
    0.1940   -2.0720  -19.5070 C   0  0  0  0  0  0  0  0  0  0  0  0
   -2.6390   -1.8810  -17.1180 C   0  0  0  0  0  0  0  0  0  0  0  0
   -3.7680   -1.3890  -17.6470 C   0  0  0  0  0  0  0  0  0  0  0  0
   -9.5670   -3.2400  -16.9160 C   0  0  0  0  0  0  0  0  0  0  0  0
   -7.1080   -3.4720  -15.4620 C   0  0  0  0  0  0  0  0  0  0  0  0
  -10.8220   -3.0700  -17.6310 C   0  0  0  0  0  0  0  0  0  0  0  0
   -6.2440   -1.8440  -17.1250 C   0  0  0  0  0  0  0  0  0  0  0  0
   -9.4640   -4.1650  -15.8680 C   0  0  0  0  0  0  0  0  0  0  0  0
   -8.2340   -4.2830  -15.1840 C   0  0  0  0  0  0  0  0  0  0  0  0
   -0.4740   -2.4920  -17.1240 C   0  0  0  0  0  0  0  0  0  0  0  0
    0.7360   -2.0040  -18.0150 C   0  0  0  0  0  0  0  0  0  0  0  0
   -8.2380   -1.7020  -18.3200 N   0  0  0  0  0  0  0  0  0  0  0  0
   -6.8640   -1.3640  -18.2760 C   0  0  0  0  0  0  0  0  0  0  0  0
   -1.4280   -1.6880  -17.7270 N   0  0  0  0  0  0  0  0  0  0  0  0
   -5.0360   -1.3120  -16.8230 N   0  0  0  0  0  0  0  0  0  0  0  0
   -4.7040   -0.8490  -19.8240 N   0  0  0  0  0  0  0  0  0  0  0  0
   -8.3670   -2.5310  -17.2870 C   0  0  0  0  0  0  0  0  0  0  0  0
   -7.2140   -2.6420  -16.5270 C   0  0  0  0  0  0  0  0  0  0  0  0
  1  3  1  0
  3 20  1  0
  3  7  1  0
  4  1  1  0
  4 18  1  0
  5  4  1  0
  5 15  1  0
  6  2  2  0
  7  6  1  0
  7 19  1  0
  8 12  1  0
  9 13  2  0
 10  8  1  0
 11 19  1  0
 11 22  2  0
 12 13  1  0
 15 14  1  0
 16 17  2  0
 16 21  1  0
 17 11  1  0
 18 14  1  0
 18  6  1  0
 21  8  2  0
 21 22  1  0
 22  9  1  0
M  END
$$$$

     RDKit          3D

 22 25  0  0  0  0  0  0  0  0999 V2000
   -2.4270   -0.9710  -19.6950 N   0  0  0  0  0  0  0  0  0  0  0  0
   -2.5520   -2.6270  -15.9510 O   0  0  0  0  0  0  0  0  0  0  0  0
   -3.6210   -0.7160  -19.0020 C   0  0  0  0  0  0  0  0  0  0  0  0
   -1.4280   -1.7060  -19.1550 C   0  0  0  0  0  0  0  0  0  0  0  0
   -0.1810   -2.0940  -19.6270 C   0  0  0  0  0  0  0  0  0  0  0  0
   -2.6050   -2.0670  -17.0540 C   0  0  0  0  0  0  0  0  0  0  0  0
   -3.7800   -1.2810  -17.5620 C   0  0  0  0  0  0  0  0  0  0  0  0
   -9.5780   -3.0750  -17.2020 C   0  0  0  0  0  0  0  0  0  0  0  0
   -7.2170   -3.5510  -15.7550 C   0  0  0  0  0  0  0  0  0  0  0  0
  -10.8220   -2.8590  -17.9390 C   0  0  0  0  0  0  0  0  0  0  0  0
   -6.2980   -1.6840  -17.2720 C   0  0  0  0  0  0  0  0  0  0  0  0
   -9.4960   -4.1090  -16.2170 C   0  0  0  0  0  0  0  0  0  0  0  0
   -8.2410   -4.3570  -15.5000 C   0  0  0  0  0  0  0  0  0  0  0  0
   -0.1450   -2.6000  -18.0500 C   0  0  0  0  0  0  0  0  0  0  0  0
    0.6910   -1.5500  -17.2900 C   0  0  0  0  0  0  0  0  0  0  0  0
   -8.2810   -1.1690  -18.1520 N   0  0  0  0  0  0  0  0  0  0  0  0
   -6.9790   -0.8600  -18.1260 N   0  0  0  0  0  0  0  0  0  0  0  0
   -1.5400   -2.1670  -17.8910 N   0  0  0  0  0  0  0  0  0  0  0  0
   -4.9930   -1.7400  -17.0270 N   0  0  0  0  0  0  0  0  0  0  0  0
   -4.6360   -0.7510  -19.7610 F   0  0  0  0  0  0  0  0  0  0  0  0
   -8.4650   -2.2780  -17.3750 C   0  0  0  0  0  0  0  0  0  0  0  0
   -7.2520   -2.5430  -16.7270 C   0  0  0  0  0  0  0  0  0  0  0  0
  1  4  2  0
  1  3  1  0
  3 20  1  0
  3  7  1  0
  4 18  1  0
  5  4  1  0
  5 14  1  0
  6  2  2  0
  7  6  1  0
  7 19  1  0
  8 12  4  0
  9 13  4  0
 10  8  1  0
 11 19  1  0
 11 22  4  0
 12 13  4  0
 14 18  1  0
 14 15  1  0
 16 17  4  0
 16 21  4  0
 17 11  4  0
 18  6  1  0
 21  8  4  0
 21 22  4  0
 22  9  4  0
M  END
$$$$

     RDKit          3D

 22 25  0  0  0  0  0  0  0  0999 V2000
   -2.6250   -1.1460  -19.5610 C   0  0  0  0  0  0  0  0  0  0  0  0
   -2.6040   -2.2750  -15.8240 C   0  0  0  0  0  0  0  0  0  0  0  0
   -3.8180   -1.2090  -18.9360 C   0  0  0  0  0  0  0  0  0  0  0  0
   -1.5360   -1.5180  -19.0750 C   0  0  0  0  0  0  0  0  0  0  0  0
   -0.2570   -0.9660  -19.3180 C   0  0  0  0  0  0  0  0  0  0  0  0
   -2.7390   -1.9360  -17.2520 C   0  0  0  0  0  0  0  0  0  0  0  0
   -4.0240   -1.8840  -17.7540 C   0  0  0  0  0  0  0  0  0  0  0  0
   -9.4510   -3.0050  -17.0350 C   0  0  0  0  0  0  0  0  0  0  0  0
   -6.9580   -3.5200  -15.6740 C   0  0  0  0  0  0  0  0  0  0  0  0
  -11.0600   -2.6250  -17.7870 Cl  0  0  0  0  0  0  0  0  0  0  0  0
   -6.2760   -1.8380  -17.4010 C   0  0  0  0  0  0  0  0  0  0  0  0
   -9.3520   -4.1200  -16.0000 C   0  0  0  0  0  0  0  0  0  0  0  0
   -8.0990   -4.2710  -15.2350 C   0  0  0  0  0  0  0  0  0  0  0  0
   -0.3570   -2.4100  -17.6730 C   0  0  0  0  0  0  0  0  0  0  0  0
    0.4350   -1.5170  -18.2130 C   0  0  0  0  0  0  0  0  0  0  0  0
   -8.1630   -1.3540  -18.1500 N   0  0  0  0  0  0  0  0  0  0  0  0
   -6.9010   -1.0560  -18.2490 C   0  0  0  0  0  0  0  0  0  0  0  0
   -1.6000   -1.9500  -17.9440 N   0  0  0  0  0  0  0  0  0  0  0  0
   -5.1140   -1.7510  -17.0220 O   0  0  0  0  0  0  0  0  0  0  0  0
   -4.7690   -0.6430  -19.6260 F   0  0  0  0  0  0  0  0  0  0  0  0
   -8.2780   -2.3170  -17.2890 C   0  0  0  0  0  0  0  0  0  0  0  0
   -7.1440   -2.6390  -16.7180 C   0  0  0  0  0  0  0  0  0  0  0  0
  1  3  2  0
  3  7  1  0
  4  1  1  0
  4 18  1  0
  5  4  1  0
  5 15  1  0
  6  2  1  0
  7  6  2  0
  7 19  1  0
  8 12  1  0
  9 13  2  0
 10  8  1  0
 11 19  1  0
 11 22  2  0
 12 13  1  0
 15 14  1  0
 16 21  1  0
 17 16  2  0
 17 11  1  0
 18 14  1  0
 18  6  1  0
 20  3  1  0
 21  8  2  0
 21 22  1  0
 22  9  1  0
M  END
$$$$

     RDKit          3D

 22 25  0  0  0  0  0  0  0  0999 V2000
   -2.4200   -1.1320  -19.6000 C   0  0  0  0  0  0  0  0  0  0  0  0
   -2.5240   -2.8730  -15.5960 Cl  0  0  0  0  0  0  0  0  0  0  0  0
   -3.6060   -1.1560  -18.8880 C   0  0  0  0  0  0  0  0  0  0  0  0
   -1.3310   -1.6240  -18.9090 C   0  0  0  0  0  0  0  0  0  0  0  0
    0.0280   -1.7460  -19.3870 C   0  0  0  0  0  0  0  0  0  0  0  0
   -2.5660   -2.1960  -16.9890 C   0  0  0  0  0  0  0  0  0  0  0  0
   -3.6720   -1.6570  -17.5490 C   0  0  0  0  0  0  0  0  0  0  0  0
   -9.4940   -3.0800  -16.7160 C   0  0  0  0  0  0  0  0  0  0  0  0
   -7.0750   -3.3990  -15.3560 C   0  0  0  0  0  0  0  0  0  0  0  0
  -10.7940   -2.7670  -17.3080 N   0  0  0  0  0  0  0  0  0  0  0  0
   -6.1580   -1.9020  -17.2440 C   0  0  0  0  0  0  0  0  0  0  0  0
   -9.3810   -3.9630  -15.6700 C   0  0  0  0  0  0  0  0  0  0  0  0
   -8.1750   -4.1870  -15.0430 C   0  0  0  0  0  0  0  0  0  0  0  0
   -0.2260   -2.8190  -17.4600 O   0  0  0  0  0  0  0  0  0  0  0  0
    0.7220   -1.9860  -18.0670 C   0  0  0  0  0  0  0  0  0  0  0  0
   -8.1670   -1.6480  -18.2310 N   0  0  0  0  0  0  0  0  0  0  0  0
   -6.8490   -1.2920  -18.2550 C   0  0  0  0  0  0  0  0  0  0  0  0
   -1.4470   -2.1100  -17.6370 C   0  0  0  0  0  0  0  0  0  0  0  0
   -4.8800   -1.5470  -16.8020 C   0  0  0  0  0  0  0  0  0  0  0  0
   -4.9440   -0.6380  -20.0250 Cl  0  0  0  0  0  0  0  0  0  0  0  0
   -8.3340   -2.4980  -17.1910 C   0  0  0  0  0  0  0  0  0  0  0  0
   -7.1290   -2.6100  -16.5350 C   0  0  0  0  0  0  0  0  0  0  0  0
  1  4  4  0
  1  3  4  0
  3  7  4  0
  4 18  4  0
  5  4  1  0
  5 15  1  0
  6  2  1  0
  7  6  4  0
  7 19  1  0
  8 12  1  0
  9 13  2  0
 10  8  1  0
 11 19  1  0
 11 22  2  0
 12 13  1  0
 15 14  1  0
 16 21  1  0
 17 16  2  0
 17 11  1  0
 18 14  1  0
 18  6  4  0
 20  3  1  0
 21  8  2  0
 21 22  1  0
 22  9  1  0
M  END
$$$$

     RDKit          3D

 22 25  0  0  0  0  0  0  0  0999 V2000
   -2.5520   -1.0410  -19.7450 C   0  0  0  0  0  0  0  0  0  0  0  0
   -2.5240   -2.7140  -15.8040 O   0  0  0  0  0  0  0  0  0  0  0  0
   -3.8590   -1.2210  -19.0690 C   0  0  0  0  0  0  0  0  0  0  0  0
   -1.4800   -1.3730  -19.1270 C   0  0  0  0  0  0  0  0  0  0  0  0
   -0.1570   -1.5440  -19.6400 C   0  0  0  0  0  0  0  0  0  0  0  0
   -2.6640   -2.4970  -17.1540 C   0  0  0  0  0  0  0  0  0  0  0  0
   -3.9400   -1.7080  -17.6550 C   0  0  0  0  0  0  0  0  0  0  0  0
   -9.4330   -3.2570  -16.8420 C   0  0  0  0  0  0  0  0  0  0  0  0
   -7.0550   -3.4740  -15.3950 C   0  0  0  0  0  0  0  0  0  0  0  0
  -10.5790   -3.1810  -17.4650 O   0  0  0  0  0  0  0  0  0  0  0  0
   -6.3070   -1.6910  -17.0420 N   0  0  0  0  0  0  0  0  0  0  0  0
   -9.3480   -4.1780  -15.8200 N   0  0  0  0  0  0  0  0  0  0  0  0
   -8.1690   -4.3100  -15.0850 C   0  0  0  0  0  0  0  0  0  0  0  0
   -0.3950   -2.8000  -17.7180 O   0  0  0  0  0  0  0  0  0  0  0  0
    0.6830   -2.3240  -18.5000 C   0  0  0  0  0  0  0  0  0  0  0  0
   -8.1860   -1.3850  -17.9770 N   0  0  0  0  0  0  0  0  0  0  0  0
   -7.0140   -0.9570  -17.8790 N   0  0  0  0  0  0  0  0  0  0  0  0
   -1.4900   -1.7250  -17.7180 C   0  0  0  0  0  0  0  0  0  0  0  0
   -4.9220   -1.5390  -16.8380 C   0  0  0  0  0  0  0  0  0  0  0  0
   -4.8450   -0.7660  -19.8010 O   0  0  0  0  0  0  0  0  0  0  0  0
   -8.3800   -2.4450  -17.1300 C   0  0  0  0  0  0  0  0  0  0  0  0
   -7.1610   -2.5880  -16.4640 C   0  0  0  0  0  0  0  0  0  0  0  0
  1  4  2  0
  1  3  1  0
  3 20  1  0
  3  7  1  0
  5  4  1  0
  5 15  1  0
  6  2  1  0
  7  6  1  0
  7 19  1  0
  8 12  4  0
  9 13  4  0
 10  8  2  0
 11 19  1  0
 11 22  4  0
 12 13  4  0
 15 14  1  0
 16 17  4  0
 16 21  4  0
 17 11  4  0
 18  4  1  0
 18 14  1  0
 18  6  1  0
 21  8  4  0
 21 22  4  0
 22  9  4  0
M  END
$$$$

     RDKit          3D

 22 25  0  0  0  0  0  0  0  0999 V2000
   -2.3800   -0.8270  -20.0490 C   0  0  0  0  0  0  0  0  0  0  0  0
   -2.6860   -2.5780  -16.0560 C   0  0  0  0  0  0  0  0  0  0  0  0
   -3.6930   -0.8150  -19.3400 C   0  0  0  0  0  0  0  0  0  0  0  0
   -1.5350   -2.0020  -19.5810 C   0  0  0  0  0  0  0  0  0  0  0  0
   -0.0900   -1.7460  -20.0020 C   0  0  0  0  0  0  0  0  0  0  0  0
   -2.5350   -1.9170  -17.3990 C   0  0  0  0  0  0  0  0  0  0  0  0
   -3.7440   -1.3670  -18.0610 C   0  0  0  0  0  0  0  0  0  0  0  0
   -9.7520   -2.7830  -16.8810 C   0  0  0  0  0  0  0  0  0  0  0  0
   -7.1020   -3.2550  -15.7110 N   0  0  0  0  0  0  0  0  0  0  0  0
  -11.0120   -2.6420  -17.3420 N   0  0  0  0  0  0  0  0  0  0  0  0
   -6.4160   -1.6460  -17.5010 C   0  0  0  0  0  0  0  0  0  0  0  0
   -9.4900   -3.7270  -15.9500 N   0  0  0  0  0  0  0  0  0  0  0  0
   -8.2610   -3.8650  -15.4020 C   0  0  0  0  0  0  0  0  0  0  0  0
   -0.1570   -2.5400  -17.6530 C   0  0  0  0  0  0  0  0  0  0  0  0
    0.6910   -1.6630  -18.6770 C   0  0  0  0  0  0  0  0  0  0  0  0
   -8.4530   -1.2800  -18.3540 N   0  0  0  0  0  0  0  0  0  0  0  0
   -7.1210   -1.0180  -18.4430 C   0  0  0  0  0  0  0  0  0  0  0  0
   -1.4630   -2.2060  -18.1700 N   0  0  0  0  0  0  0  0  0  0  0  0
   -5.0030   -1.2840  -17.3140 C   0  0  0  0  0  0  0  0  0  0  0  0
   -4.7950   -0.5300  -20.0390 F   0  0  0  0  0  0  0  0  0  0  0  0
   -8.6120   -2.1540  -17.3650 C   0  0  0  0  0  0  0  0  0  0  0  0
   -7.3660   -2.4190  -16.8220 C   0  0  0  0  0  0  0  0  0  0  0  0
  1  3  1  0
  3 20  1  0
  3  7  1  0
  4  1  1  0
  4 18  1  0
  5  4  1  0
  5 15  1  0
  6  2  1  0
  7  6  1  0
  7 19  1  0
  8 12  4  0
  9 13  4  0
 10  8  1  0
 11 19  1  0
 11 22  4  0
 12 13  4  0
 15 14  1  0
 16 21  4  0
 17 16  4  0
 17 11  4  0
 18 14  1  0
 18  6  1  0
 21  8  4  0
 21 22  1  0
 22  9  4  0
M  END
$$$$

     RDKit          3D

 22 25  0  0  0  0  0  0  0  0999 V2000
   -2.1810   -1.1120  -19.6840 C   0  0  0  0  0  0  0  0  0  0  0  0
   -2.3760   -2.7830  -15.9690 O   0  0  0  0  0  0  0  0  0  0  0  0
   -3.4100   -1.0930  -19.0230 C   0  0  0  0  0  0  0  0  0  0  0  0
   -1.1900   -1.7040  -19.0100 C   0  0  0  0  0  0  0  0  0  0  0  0
    0.2440   -1.7240  -19.5190 C   0  0  0  0  0  0  0  0  0  0  0  0
   -2.4090   -2.1820  -17.1210 C   0  0  0  0  0  0  0  0  0  0  0  0
   -3.5080   -1.5740  -17.7480 C   0  0  0  0  0  0  0  0  0  0  0  0
   -9.2710   -3.0090  -17.0240 C   0  0  0  0  0  0  0  0  0  0  0  0
   -6.8970   -3.3340  -15.7710 C   0  0  0  0  0  0  0  0  0  0  0  0
  -10.6000   -2.9180  -17.7990 C   0  0  0  0  0  0  0  0  0  0  0  0
   -6.1360   -1.6340  -17.4890 C   0  0  0  0  0  0  0  0  0  0  0  0
   -9.1940   -3.8500  -16.0790 N   0  0  0  0  0  0  0  0  0  0  0  0
   -7.9950   -4.0390  -15.4520 C   0  0  0  0  0  0  0  0  0  0  0  0
    0.1590   -2.5600  -17.3900 C   0  0  0  0  0  0  0  0  0  0  0  0
    0.9520   -1.4740  -18.1410 C   0  0  0  0  0  0  0  0  0  0  0  0
   -8.1520   -1.4570  -18.4510 N   0  0  0  0  0  0  0  0  0  0  0  0
   -6.7710   -1.0770  -18.4980 C   0  0  0  0  0  0  0  0  0  0  0  0
   -1.2390   -2.1450  -17.8510 N   0  0  0  0  0  0  0  0  0  0  0  0
   -4.7910   -1.4310  -16.9490 C   0  0  0  0  0  0  0  0  0  0  0  0
   -4.4660   -0.5760  -19.6350 N   0  0  0  0  0  0  0  0  0  0  0  0
   -8.2270   -2.3200  -17.5010 C   0  0  0  0  0  0  0  0  0  0  0  0
   -7.0120   -2.4510  -16.8700 C   0  0  0  0  0  0  0  0  0  0  0  0
  1  3  1  0
  1  4  2  0
  3  7  1  0
  4 18  1  0
  5  4  1  0
  5 15  1  0
  6  2  2  0
  7  6  1  0
  7 19  1  0
  8 12  4  0
  9 13  4  0
 10  8  1  0
 11 19  1  0
 11 22  4  0
 12 13  4  0
 15 14  1  0
 16 21  4  0
 17 16  4  0
 17 11  4  0
 18 14  1  0
 18  6  1  0
 20  3  2  0
 21  8  4  0
 21 22  1  0
 22  9  4  0
M  END
$$$$

     RDKit          3D

 22 24  0  0  0  0  0  0  0  0999 V2000
   -2.7080   -1.1440  -19.8440 C   0  0  0  0  0  0  0  0  0  0  0  0
   -2.5260   -2.3390  -15.4840 Cl  0  0  0  0  0  0  0  0  0  0  0  0
   -3.9140   -1.0720  -19.0270 C   0  0  0  0  0  0  0  0  0  0  0  0
   -1.5130   -1.5430  -19.2490 C   0  0  0  0  0  0  0  0  0  0  0  0
   -0.0670   -1.9360  -20.3340 Cl  0  0  0  0  0  0  0  0  0  0  0  0
   -2.6690   -1.8420  -17.1120 C   0  0  0  0  0  0  0  0  0  0  0  0
   -3.8340   -1.4050  -17.7000 C   0  0  0  0  0  0  0  0  0  0  0  0
   -9.6780   -3.1010  -16.8780 C   0  0  0  0  0  0  0  0  0  0  0  0
   -7.2790   -3.4750  -15.4830 C   0  0  0  0  0  0  0  0  0  0  0  0
  -10.8180   -2.8970  -17.6110 O   0  0  0  0  0  0  0  0  0  0  0  0
   -6.4220   -1.5660  -17.1940 C   0  0  0  0  0  0  0  0  0  0  0  0
   -9.5770   -4.1240  -15.8940 C   0  0  0  0  0  0  0  0  0  0  0  0
   -8.3340   -4.2700  -15.1760 C   0  0  0  0  0  0  0  0  0  0  0  0
   -0.2090   -1.9020  -17.1430 O   0  0  0  0  0  0  0  0  0  0  0  0
    1.1300   -1.6030  -17.1330 C   0  0  0  0  0  0  0  0  0  0  0  0
   -8.4870   -1.2280  -18.1140 N   0  0  0  0  0  0  0  0  0  0  0  0
   -7.1200   -0.8580  -18.0920 C   0  0  0  0  0  0  0  0  0  0  0  0
   -1.4910   -1.8300  -17.8560 C   0  0  0  0  0  0  0  0  0  0  0  0
   -5.0400   -1.3970  -16.7490 C   0  0  0  0  0  0  0  0  0  0  0  0
   -5.3240   -0.4080  -20.0440 Cl  0  0  0  0  0  0  0  0  0  0  0  0
   -8.5990   -2.2480  -17.2260 C   0  0  0  0  0  0  0  0  0  0  0  0
   -7.3070   -2.5320  -16.5600 C   0  0  0  0  0  0  0  0  0  0  0  0
  1  4  4  0
  1  3  4  0
  3  7  4  0
  4 18  4  0
  5  4  1  0
  6  2  1  0
  7  6  4  0
  7 19  1  0
  8 12  1  0
  9 13  2  0
 10  8  1  0
 11 19  1  0
 11 22  2  0
 12 13  1  0
 14 15  1  0
 16 17  2  0
 16 21  1  0
 17 11  1  0
 18 14  1  0
 18  6  4  0
 20  3  1  0
 21  8  2  0
 21 22  1  0
 22  9  1  0
M  END
$$$$

     RDKit          3D

 22 25  0  0  0  0  0  0  0  0999 V2000
   -2.5160   -1.0390  -19.7500 C   0  0  0  0  0  0  0  0  0  0  0  0
   -2.5170   -1.9920  -15.7170 O   0  0  0  0  0  0  0  0  0  0  0  0
   -3.7340   -1.0700  -19.0600 C   0  0  0  0  0  0  0  0  0  0  0  0
   -1.4380   -1.8400  -19.1250 C   0  0  0  0  0  0  0  0  0  0  0  0
    0.0760   -2.0870  -19.5160 C   0  0  0  0  0  0  0  0  0  0  0  0
   -2.5700   -1.8120  -16.9480 C   0  0  0  0  0  0  0  0  0  0  0  0
   -3.8120   -1.4410  -17.6540 C   0  0  0  0  0  0  0  0  0  0  0  0
   -9.6950   -3.2060  -17.1660 C   0  0  0  0  0  0  0  0  0  0  0  0
   -7.3070   -3.6890  -15.7160 C   0  0  0  0  0  0  0  0  0  0  0  0
  -10.8400   -2.8370  -17.8340 F   0  0  0  0  0  0  0  0  0  0  0  0
   -6.3020   -1.9120  -17.3500 C   0  0  0  0  0  0  0  0  0  0  0  0
   -9.6470   -4.1670  -16.1380 C   0  0  0  0  0  0  0  0  0  0  0  0
   -8.4560   -4.4650  -15.4150 C   0  0  0  0  0  0  0  0  0  0  0  0
   -0.0530   -2.3440  -17.2080 C   0  0  0  0  0  0  0  0  0  0  0  0
    0.7320   -1.4390  -18.0400 C   0  0  0  0  0  0  0  0  0  0  0  0
   -8.2720   -1.6390  -18.3910 N   0  0  0  0  0  0  0  0  0  0  0  0
   -6.9290   -1.2480  -18.3970 C   0  0  0  0  0  0  0  0  0  0  0  0
   -1.4850   -1.9270  -17.6700 N   0  0  0  0  0  0  0  0  0  0  0  0
   -4.9950   -1.6050  -16.9080 C   0  0  0  0  0  0  0  0  0  0  0  0
   -4.7930   -0.6880  -19.8930 N   0  0  0  0  0  0  0  0  0  0  0  0
   -8.5080   -2.5420  -17.4900 C   0  0  0  0  0  0  0  0  0  0  0  0
   -7.2790   -2.7760  -16.7770 C   0  0  0  0  0  0  0  0  0  0  0  0
  1  3  1  0
  3  7  2  0
  4  1  1  0
  4 18  1  0
  5  4  1  0
  5 15  1  0
  6  2  2  0
  7  6  1  0
  7 19  1  0
  8 12  1  0
  9 13  2  0
 10  8  1  0
 11 19  1  0
 11 22  2  0
 12 13  1  0
 15 14  1  0
 16 21  1  0
 17 16  2  0
 17 11  1  0
 18 14  1  0
 18  6  1  0
 20  3  1  0
 21  8  2  0
 21 22  1  0
 22  9  1  0
M  END
$$$$

     RDKit          3D

 22 25  0  0  0  0  0  0  0  0999 V2000
   -2.5140   -1.0510  -19.6530 C   0  0  0  0  0  0  0  0  0  0  0  0
   -2.7680   -2.2800  -15.7150 O   0  0  0  0  0  0  0  0  0  0  0  0
   -3.6820   -0.6100  -18.6820 C   0  0  0  0  0  0  0  0  0  0  0  0
   -1.7320   -2.0090  -19.2750 C   0  0  0  0  0  0  0  0  0  0  0  0
   -0.3200   -2.4960  -19.1850 C   0  0  0  0  0  0  0  0  0  0  0  0
   -2.9190   -2.4730  -17.2040 C   0  0  0  0  0  0  0  0  0  0  0  0
   -3.7940   -1.2570  -17.4290 C   0  0  0  0  0  0  0  0  0  0  0  0
   -9.4270   -3.0590  -16.9970 C   0  0  0  0  0  0  0  0  0  0  0  0
   -7.0510   -3.4050  -15.6600 C   0  0  0  0  0  0  0  0  0  0  0  0
  -10.7990   -2.9890  -17.6940 C   0  0  0  0  0  0  0  0  0  0  0  0
   -6.2640   -1.7080  -17.2980 C   0  0  0  0  0  0  0  0  0  0  0  0
   -9.2520   -3.9030  -15.9570 C   0  0  0  0  0  0  0  0  0  0  0  0
   -8.0730   -4.2480  -15.3610 C   0  0  0  0  0  0  0  0  0  0  0  0
   -0.2030   -2.3400  -17.6000 C   0  0  0  0  0  0  0  0  0  0  0  0
    0.5210   -0.9970  -17.3390 C   0  0  0  0  0  0  0  0  0  0  0  0
   -8.2030   -1.5040  -18.3330 N   0  0  0  0  0  0  0  0  0  0  0  0
   -6.9490   -1.1850  -18.3420 C   0  0  0  0  0  0  0  0  0  0  0  0
   -1.6910   -1.9710  -17.7300 N   0  0  0  0  0  0  0  0  0  0  0  0
   -5.0230   -1.4190  -16.9280 N   0  0  0  0  0  0  0  0  0  0  0  0
   -4.7060   -0.8790  -19.6860 O   0  0  0  0  0  0  0  0  0  0  0  0
   -8.3320   -2.3540  -17.3680 C   0  0  0  0  0  0  0  0  0  0  0  0
   -7.1640   -2.5080  -16.6350 C   0  0  0  0  0  0  0  0  0  0  0  0
  1  3  1  0
  3 20  1  0
  3  7  1  0
  4  1  1  0
  4  5  1  0
  4 18  1  0
  5 14  1  0
  6  2  1  0
  7  6  1  0
  7 19  1  0
  8 12  1  0
  9 13  2  0
 10  8  1  0
 11 19  1  0
 11 22  2  0
 12 13  1  0
 14 15  1  0
 16 21  1  0
 17 16  2  0
 17 11  1  0
 18 14  1  0
 18  6  1  0
 21  8  2  0
 21 22  1  0
 22  9  1  0
M  END
$$$$

     RDKit          3D

 22 25  0  0  0  0  0  0  0  0999 V2000
   -2.6480   -1.0030  -19.7610 C   0  0  0  0  0  0  0  0  0  0  0  0
   -2.5340   -1.8630  -15.8900 O   0  0  0  0  0  0  0  0  0  0  0  0
   -3.9610   -1.2630  -19.1040 C   0  0  0  0  0  0  0  0  0  0  0  0
   -1.5540   -1.2450  -19.0970 C   0  0  0  0  0  0  0  0  0  0  0  0
   -0.1480   -1.2590  -19.6710 C   0  0  0  0  0  0  0  0  0  0  0  0
   -2.6560   -1.5890  -17.1360 C   0  0  0  0  0  0  0  0  0  0  0  0
   -3.8730   -1.4530  -17.7650 C   0  0  0  0  0  0  0  0  0  0  0  0
   -9.4780   -3.0050  -17.0700 C   0  0  0  0  0  0  0  0  0  0  0  0
   -7.1800   -3.5200  -15.4960 C   0  0  0  0  0  0  0  0  0  0  0  0
  -11.0310   -2.6380  -17.8960 Cl  0  0  0  0  0  0  0  0  0  0  0  0
   -6.0910   -1.8030  -17.2580 C   0  0  0  0  0  0  0  0  0  0  0  0
   -9.4550   -3.9430  -16.1190 C   0  0  0  0  0  0  0  0  0  0  0  0
   -8.3300   -4.1540  -15.3060 C   0  0  0  0  0  0  0  0  0  0  0  0
   -0.2870   -2.3030  -17.6670 C   0  0  0  0  0  0  0  0  0  0  0  0
    0.7410   -1.3310  -18.4300 C   0  0  0  0  0  0  0  0  0  0  0  0
   -8.0400   -1.4440  -18.2040 N   0  0  0  0  0  0  0  0  0  0  0  0
   -6.6170   -1.1870  -18.3400 C   0  0  0  0  0  0  0  0  0  0  0  0
   -1.5270   -1.5140  -17.9220 N   0  0  0  0  0  0  0  0  0  0  0  0
   -4.9760   -1.8070  -16.9190 N   0  0  0  0  0  0  0  0  0  0  0  0
   -4.8300   -0.5250  -19.7330 N   0  0  0  0  0  0  0  0  0  0  0  0
   -8.3030   -2.3210  -17.2960 C   0  0  0  0  0  0  0  0  0  0  0  0
   -7.1530   -2.5860  -16.6460 C   0  0  0  0  0  0  0  0  0  0  0  0
  1  3  1  0
  1  4  2  0
  3  7  1  0
  4 18  1  0
  5  4  1  0
  5 15  1  0
  6  2  2  0
  7  6  1  0
  7 19  2  3
  8 12  1  0
  9 13  2  0
 10  8  1  0
 11 19  1  0
 11 22  2  0
 12 13  1  0
 15 14  1  0
 16 21  1  0
 17 16  2  0
 17 11  1  0
 18 14  1  0
 18  6  1  0
 20  3  2  0
 21  8  2  0
 21 22  1  0
 22  9  1  0
M  END
$$$$

     RDKit          3D

 22 25  0  0  0  0  0  0  0  0999 V2000
   -2.4620   -1.0690  -19.5680 C   0  0  0  0  0  0  0  0  0  0  0  0
   -2.5030   -2.8750  -15.7470 C   0  0  0  0  0  0  0  0  0  0  0  0
   -3.6510   -1.1740  -18.8740 C   0  0  0  0  0  0  0  0  0  0  0  0
   -1.3390   -1.6720  -18.9610 C   0  0  0  0  0  0  0  0  0  0  0  0
   -0.0180   -1.7790  -19.4590 O   0  0  0  0  0  0  0  0  0  0  0  0
   -2.6170   -2.2260  -16.9490 C   0  0  0  0  0  0  0  0  0  0  0  0
   -3.7940   -1.6270  -17.5680 C   0  0  0  0  0  0  0  0  0  0  0  0
   -9.5690   -3.1510  -16.9130 C   0  0  0  0  0  0  0  0  0  0  0  0
   -7.2090   -3.4580  -15.4170 C   0  0  0  0  0  0  0  0  0  0  0  0
  -10.7400   -2.9180  -17.5570 N   0  0  0  0  0  0  0  0  0  0  0  0
   -6.1700   -1.7860  -17.1830 C   0  0  0  0  0  0  0  0  0  0  0  0
   -9.4830   -4.1050  -15.9450 N   0  0  0  0  0  0  0  0  0  0  0  0
   -8.3380   -4.2740  -15.1790 C   0  0  0  0  0  0  0  0  0  0  0  0
   -0.2310   -2.5370  -17.3450 O   0  0  0  0  0  0  0  0  0  0  0  0
    0.5420   -1.7470  -18.1800 C   0  0  0  0  0  0  0  0  0  0  0  0
   -8.1010   -1.3870  -18.1600 N   0  0  0  0  0  0  0  0  0  0  0  0
   -6.7520   -1.0320  -18.1240 N   0  0  0  0  0  0  0  0  0  0  0  0
   -1.4800   -2.0810  -17.6630 C   0  0  0  0  0  0  0  0  0  0  0  0
   -4.8440   -1.7010  -16.7070 N   0  0  0  0  0  0  0  0  0  0  0  0
   -4.8940   -0.6040  -19.9530 Cl  0  0  0  0  0  0  0  0  0  0  0  0
   -8.4100   -2.3320  -17.2500 C   0  0  0  0  0  0  0  0  0  0  0  0
   -7.1800   -2.6120  -16.5590 C   0  0  0  0  0  0  0  0  0  0  0  0
  1  4  4  0
  1  3  4  0
  3  7  4  0
  4 18  4  0
  5  4  1  0
  5 15  1  0
  6  2  1  0
  7  6  4  0
  7 19  1  0
  8 12  4  0
  9 13  4  0
 10  8  1  0
 11 19  1  0
 11 22  4  0
 12 13  4  0
 15 14  1  0
 16 17  4  0
 16 21  4  0
 17 11  4  0
 18 14  1  0
 18  6  4  0
 20  3  1  0
 21  8  4  0
 21 22  4  0
 22  9  4  0
M  END
$$$$

     RDKit          3D

 22 25  0  0  0  0  0  0  0  0999 V2000
   -2.5500   -1.0500  -19.5770 C   0  0  0  0  0  0  0  0  0  0  0  0
   -2.7520   -2.4480  -15.3540 Cl  0  0  0  0  0  0  0  0  0  0  0  0
   -3.8020   -1.1500  -18.9810 C   0  0  0  0  0  0  0  0  0  0  0  0
   -1.4260   -1.4370  -18.9230 C   0  0  0  0  0  0  0  0  0  0  0  0
   -0.0620   -1.6610  -19.3890 C   0  0  0  0  0  0  0  0  0  0  0  0
   -2.7180   -1.8940  -16.9860 C   0  0  0  0  0  0  0  0  0  0  0  0
   -3.8710   -1.4710  -17.6400 C   0  0  0  0  0  0  0  0  0  0  0  0
   -9.5480   -3.1620  -16.9250 C   0  0  0  0  0  0  0  0  0  0  0  0
   -7.1840   -3.4800  -15.4950 C   0  0  0  0  0  0  0  0  0  0  0  0
  -10.8090   -2.7110  -17.5460 C   0  0  0  0  0  0  0  0  0  0  0  0
   -6.3120   -1.8420  -17.2900 C   0  0  0  0  0  0  0  0  0  0  0  0
   -9.4890   -4.1130  -15.9520 N   0  0  0  0  0  0  0  0  0  0  0  0
   -8.3150   -4.3110  -15.2640 C   0  0  0  0  0  0  0  0  0  0  0  0
   -0.3620   -2.6670  -17.5760 O   0  0  0  0  0  0  0  0  0  0  0  0
    0.6630   -1.8440  -18.0560 C   0  0  0  0  0  0  0  0  0  0  0  0
   -8.1870   -1.5470  -18.2860 N   0  0  0  0  0  0  0  0  0  0  0  0
   -6.9000   -1.2490  -18.3120 N   0  0  0  0  0  0  0  0  0  0  0  0
   -1.5360   -1.8330  -17.7660 C   0  0  0  0  0  0  0  0  0  0  0  0
   -5.0040   -1.6010  -16.9300 N   0  0  0  0  0  0  0  0  0  0  0  0
   -4.8890   -0.6850  -20.0050 Cl  0  0  0  0  0  0  0  0  0  0  0  0
   -8.4120   -2.4180  -17.2930 C   0  0  0  0  0  0  0  0  0  0  0  0
   -7.1980   -2.6210  -16.6190 C   0  0  0  0  0  0  0  0  0  0  0  0
  1  3  4  0
  1  4  4  0
  3  7  4  0
  4 18  4  0
  5  4  1  0
  5 15  1  0
  6  2  1  0
  7  6  4  0
  7 19  1  0
  8 12  4  0
  9 13  4  0
 10  8  1  0
 11 19  1  0
 11 22  4  0
 12 13  4  0
 15 14  1  0
 16 21  4  0
 17 16  4  0
 17 11  4  0
 18 14  1  0
 18  6  4  0
 20  3  1  0
 21  8  4  0
 21 22  4  0
 22  9  4  0
M  END
$$$$

     RDKit          3D

 22 25  0  0  0  0  0  0  0  0999 V2000
   -2.5470   -1.1580  -19.8130 C   0  0  0  0  0  0  0  0  0  0  0  0
   -2.4830   -2.2770  -15.9690 O   0  0  0  0  0  0  0  0  0  0  0  0
   -3.7030   -0.9960  -19.1910 C   0  0  0  0  0  0  0  0  0  0  0  0
   -1.3890   -1.5440  -19.2880 C   0  0  0  0  0  0  0  0  0  0  0  0
   -0.0780   -1.7230  -19.7290 C   0  0  0  0  0  0  0  0  0  0  0  0
   -2.5340   -1.8310  -17.1590 C   0  0  0  0  0  0  0  0  0  0  0  0
   -3.7770   -1.3380  -17.7680 C   0  0  0  0  0  0  0  0  0  0  0  0
   -9.4850   -2.7820  -16.8850 C   0  0  0  0  0  0  0  0  0  0  0  0
   -7.0720   -3.3210  -15.8220 C   0  0  0  0  0  0  0  0  0  0  0  0
  -10.6990   -2.4100  -17.3830 C   0  0  0  0  0  0  0  0  0  0  0  0
   -6.1980   -1.4980  -17.4030 C   0  0  0  0  0  0  0  0  0  0  0  0
   -9.3460   -3.7910  -15.9720 N   0  0  0  0  0  0  0  0  0  0  0  0
   -8.1780   -4.1230  -15.4290 C   0  0  0  0  0  0  0  0  0  0  0  0
   -0.1130   -2.1880  -17.5720 C   0  0  0  0  0  0  0  0  0  0  0  0
    0.7000   -2.1240  -18.6760 C   0  0  0  0  0  0  0  0  0  0  0  0
   -8.1470   -1.1840  -18.3590 N   0  0  0  0  0  0  0  0  0  0  0  0
   -6.8480   -0.7790  -18.3630 C   0  0  0  0  0  0  0  0  0  0  0  0
   -1.4970   -1.9520  -17.9560 N   0  0  0  0  0  0  0  0  0  0  0  0
   -4.9020   -1.2430  -16.9080 C   0  0  0  0  0  0  0  0  0  0  0  0
   -4.5910   -0.5070  -19.8940 F   0  0  0  0  0  0  0  0  0  0  0  0
   -8.3500   -2.1450  -17.4360 C   0  0  0  0  0  0  0  0  0  0  0  0
   -7.0990   -2.3810  -16.8240 C   0  0  0  0  0  0  0  0  0  0  0  0
  1  4  1  0
  1  3  2  0
  3  7  1  0
  4 18  4  0
  5  4  4  0
  5 15  4  0
  6  2  2  0
  7  6  1  0
  7 19  1  0
  8 12  4  0
  9 13  4  0
 10  8  1  0
 11 19  1  0
 11 22  4  0
 12 13  4  0
 15 14  4  0
 16 21  4  0
 17 16  4  0
 17 11  4  0
 18 14  4  0
 18  6  1  0
 20  3  1  0
 21  8  4  0
 21 22  1  0
 22  9  4  0
M  END
$$$$

     RDKit          3D

 22 25  0  0  0  0  0  0  0  0999 V2000
   -2.2490   -1.0070  -19.7740 C   0  0  0  0  0  0  0  0  0  0  0  0
   -2.3260   -2.7950  -16.0940 O   0  0  0  0  0  0  0  0  0  0  0  0
   -3.4830   -0.9490  -18.9580 C   0  0  0  0  0  0  0  0  0  0  0  0
   -1.3050   -2.1340  -19.4130 C   0  0  0  0  0  0  0  0  0  0  0  0
    0.1560   -1.6890  -19.7800 C   0  0  0  0  0  0  0  0  0  0  0  0
   -2.4140   -2.3640  -17.2280 C   0  0  0  0  0  0  0  0  0  0  0  0
   -3.6170   -1.5950  -17.7090 C   0  0  0  0  0  0  0  0  0  0  0  0
   -9.3960   -3.0540  -17.0970 C   0  0  0  0  0  0  0  0  0  0  0  0
   -6.9250   -3.4430  -15.7720 C   0  0  0  0  0  0  0  0  0  0  0  0
  -10.5790   -3.0730  -17.8400 O   0  0  0  0  0  0  0  0  0  0  0  0
   -6.1310   -1.6850  -17.4470 C   0  0  0  0  0  0  0  0  0  0  0  0
   -9.3150   -3.9350  -16.0130 C   0  0  0  0  0  0  0  0  0  0  0  0
   -8.0210   -4.1440  -15.3760 C   0  0  0  0  0  0  0  0  0  0  0  0
    0.1090   -2.4500  -17.4740 C   0  0  0  0  0  0  0  0  0  0  0  0
    0.8210   -1.4840  -18.4120 C   0  0  0  0  0  0  0  0  0  0  0  0
   -8.1170   -1.5040  -18.5260 N   0  0  0  0  0  0  0  0  0  0  0  0
   -6.7990   -1.1200  -18.5020 C   0  0  0  0  0  0  0  0  0  0  0  0
   -1.3300   -2.3470  -17.9430 N   0  0  0  0  0  0  0  0  0  0  0  0
   -4.7640   -1.5300  -16.9490 C   0  0  0  0  0  0  0  0  0  0  0  0
   -4.5510   -0.2870  -19.4670 O   0  0  0  0  0  0  0  0  0  0  0  0
   -8.2580   -2.4080  -17.4970 C   0  0  0  0  0  0  0  0  0  0  0  0
   -6.9880   -2.5950  -16.8680 C   0  0  0  0  0  0  0  0  0  0  0  0
  1  4  1  0
  1  3  1  0
  3  7  2  0
  4  5  1  0
  4 18  1  0
  5 15  1  0
  6  2  2  0
  7  6  1  0
  7 19  1  0
  8 12  1  0
  9 13  2  0
 10  8  1  0
 11 19  1  0
 11 22  2  0
 12 13  1  0
 15 14  1  0
 16 17  2  0
 16 21  1  0
 17 11  1  0
 18 14  1  0
 18  6  1  0
 20  3  1  0
 21  8  2  0
 21 22  1  0
 22  9  1  0
M  END
$$$$

     RDKit          3D

 22 25  0  0  0  0  0  0  0  0999 V2000
   -2.6710   -1.0120  -19.6780 C   0  0  0  0  0  0  0  0  0  0  0  0
   -2.2820   -2.2630  -15.4530 C   0  0  0  0  0  0  0  0  0  0  0  0
   -3.8360   -1.1680  -18.7670 C   0  0  0  0  0  0  0  0  0  0  0  0
   -1.3930   -1.3210  -19.1520 C   0  0  0  0  0  0  0  0  0  0  0  0
   -0.2700   -1.5260  -20.0580 C   0  0  0  0  0  0  0  0  0  0  0  0
   -2.3570   -1.7960  -16.8980 C   0  0  0  0  0  0  0  0  0  0  0  0
   -3.6760   -1.6100  -17.4320 C   0  0  0  0  0  0  0  0  0  0  0  0
   -9.4330   -2.9900  -16.9530 C   0  0  0  0  0  0  0  0  0  0  0  0
   -7.0790   -3.5890  -15.5710 C   0  0  0  0  0  0  0  0  0  0  0  0
  -10.5800   -2.7220  -17.5830 O   0  0  0  0  0  0  0  0  0  0  0  0
   -6.0180   -1.9820  -17.2270 C   0  0  0  0  0  0  0  0  0  0  0  0
   -9.4020   -3.9560  -15.9040 C   0  0  0  0  0  0  0  0  0  0  0  0
   -8.2790   -4.2460  -15.2450 C   0  0  0  0  0  0  0  0  0  0  0  0
   -0.0380   -2.0790  -17.2090 O   0  0  0  0  0  0  0  0  0  0  0  0
    0.9960   -1.1290  -17.1430 C   0  0  0  0  0  0  0  0  0  0  0  0
   -7.9270   -1.5430  -18.4160 C   0  0  0  0  0  0  0  0  0  0  0  0
   -6.4750   -1.4390  -18.4180 C   0  0  0  0  0  0  0  0  0  0  0  0
   -1.3120   -1.6620  -17.6820 C   0  0  0  0  0  0  0  0  0  0  0  0
   -4.8000   -1.9280  -16.7080 N   0  0  0  0  0  0  0  0  0  0  0  0
   -5.3520   -0.8130  -19.5050 S   0  0  0  0  0  0  0  0  0  0  0  0
   -8.2420   -2.4160  -17.3470 C   0  0  0  0  0  0  0  0  0  0  0  0
   -7.0610   -2.6680  -16.6620 C   0  0  0  0  0  0  0  0  0  0  0  0
  1  4  2  0
  3  1  1  0
  3  7  1  0
  4 18  1  0
  5  4  1  0
  6  2  1  0
  7  6  1  0
  7 19  2  0
  8 12  4  0
  9 13  4  0
 10  8  1  0
 11 19  1  0
 11 22  1  0
 12 13  4  0
 14 15  1  0
 16 21  1  0
 17 16  1  0
 17 11  2  0
 18 14  1  0
 18  6  2  0
 20  3  1  0
 20 17  1  0
 21  8  4  0
 21 22  4  0
 22  9  4  0
M  END
$$$$

     RDKit          3D

 22 25  0  0  0  0  0  0  0  0999 V2000
   -2.0430   -0.4590  -19.5180 S   0  0  0  0  0  0  0  0  0  0  0  0
   -2.6850   -1.8820  -15.7010 O   0  0  0  0  0  0  0  0  0  0  0  0
   -3.6330   -1.0440  -19.0330 C   0  0  0  0  0  0  0  0  0  0  0  0
   -1.3640   -2.0480  -19.0330 C   0  0  0  0  0  0  0  0  0  0  0  0
    0.1460   -2.1420  -19.3380 C   0  0  0  0  0  0  0  0  0  0  0  0
   -2.6160   -1.7530  -16.9040 C   0  0  0  0  0  0  0  0  0  0  0  0
   -3.8090   -1.3850  -17.7520 C   0  0  0  0  0  0  0  0  0  0  0  0
   -9.4780   -3.1100  -16.9070 C   0  0  0  0  0  0  0  0  0  0  0  0
   -6.9210   -3.3270  -15.5270 C   0  0  0  0  0  0  0  0  0  0  0  0
  -10.6330   -3.0760  -17.5530 F   0  0  0  0  0  0  0  0  0  0  0  0
   -6.2720   -1.8340  -17.3560 C   0  0  0  0  0  0  0  0  0  0  0  0
   -9.2890   -3.9360  -15.8080 C   0  0  0  0  0  0  0  0  0  0  0  0
   -8.0430   -4.0450  -15.1050 C   0  0  0  0  0  0  0  0  0  0  0  0
   -0.1740   -2.2120  -16.9390 C   0  0  0  0  0  0  0  0  0  0  0  0
    0.8480   -1.9740  -18.0070 C   0  0  0  0  0  0  0  0  0  0  0  0
   -8.1780   -1.5550  -18.3590 N   0  0  0  0  0  0  0  0  0  0  0  0
   -6.8060   -1.2490  -18.3400 N   0  0  0  0  0  0  0  0  0  0  0  0
   -1.5540   -2.1620  -17.6020 N   0  0  0  0  0  0  0  0  0  0  0  0
   -4.9880   -1.7100  -16.9140 N   0  0  0  0  0  0  0  0  0  0  0  0
   -4.7440   -1.0410  -20.0670 C   0  0  0  0  0  0  0  0  0  0  0  0
   -8.3700   -2.3730  -17.3240 C   0  0  0  0  0  0  0  0  0  0  0  0
   -7.1180   -2.5380  -16.6360 N   0  0  0  0  0  0  0  0  0  0  0  0
  1  3  1  0
  1  4  1  0
  3 20  1  0
  3  7  1  0
  4  5  1  0
  4 18  1  0
  5 15  1  0
  6  2  2  0
  7 19  2  3
  7  6  1  0
  8 12  1  0
  9 13  1  0
 10  8  1  0
 11 19  1  0
 11 22  1  0
 12 13  2  0
 15 14  1  0
 16 17  1  0
 16 21  1  0
 17 11  2  0
 18 14  1  0
 18  6  1  0
 21  8  2  0
 21 22  1  0
 22  9  1  0
M  END
$$$$

     RDKit          3D

 22 24  0  0  0  0  0  0  0  0999 V2000
   -2.5870   -1.1730  -19.5890 C   0  0  0  0  0  0  0  0  0  0  0  0
   -2.3170   -2.4040  -15.7140 O   0  0  0  0  0  0  0  0  0  0  0  0
   -3.7320   -1.0460  -18.7880 C   0  0  0  0  0  0  0  0  0  0  0  0
   -1.5000   -1.6850  -19.1290 C   0  0  0  0  0  0  0  0  0  0  0  0
   -0.4770   -2.3010  -19.7790 O   0  0  0  0  0  0  0  0  0  0  0  0
   -2.4800   -1.9320  -16.9650 C   0  0  0  0  0  0  0  0  0  0  0  0
   -3.6840   -1.6020  -17.5100 C   0  0  0  0  0  0  0  0  0  0  0  0
   -9.5100   -3.2000  -17.0590 C   0  0  0  0  0  0  0  0  0  0  0  0
   -7.1700   -3.4850  -15.5570 C   0  0  0  0  0  0  0  0  0  0  0  0
  -10.8900   -3.1040  -17.9700 Cl  0  0  0  0  0  0  0  0  0  0  0  0
   -6.2720   -1.7600  -17.2120 C   0  0  0  0  0  0  0  0  0  0  0  0
   -9.4770   -4.1130  -16.0470 C   0  0  0  0  0  0  0  0  0  0  0  0
   -8.3150   -4.2920  -15.3490 C   0  0  0  0  0  0  0  0  0  0  0  0
   -0.1170   -2.7370  -17.4140 C   0  0  0  0  0  0  0  0  0  0  0  0
    0.9450   -1.4920  -17.4870 C   0  0  0  0  0  0  0  0  0  0  0  0
   -8.1740   -1.4300  -18.2350 N   0  0  0  0  0  0  0  0  0  0  0  0
   -6.8550   -1.0650  -18.1420 N   0  0  0  0  0  0  0  0  0  0  0  0
   -1.4280   -2.1520  -17.7630 N   0  0  0  0  0  0  0  0  0  0  0  0
   -4.8920   -1.7250  -16.6620 C   0  0  0  0  0  0  0  0  0  0  0  0
   -4.8190   -0.5340  -19.4500 F   0  0  0  0  0  0  0  0  0  0  0  0
   -8.4000   -2.4070  -17.3740 C   0  0  0  0  0  0  0  0  0  0  0  0
   -7.2390   -2.5950  -16.6210 C   0  0  0  0  0  0  0  0  0  0  0  0
  1  4  1  0
  1  3  2  0
  3  7  1  0
  4 18  1  0
  5  4  2  0
  6  2  2  0
  7  6  1  0
  7 19  1  0
  8 12  1  0
  9 13  2  0
 10  8  1  0
 11 19  1  0
 11 22  2  0
 12 13  1  0
 15 14  1  0
 16 17  2  0
 16 21  1  0
 17 11  1  0
 18 14  1  0
 18  6  1  0
 20  3  1  0
 21  8  2  0
 21 22  1  0
 22  9  1  0
M  END
$$$$

     RDKit          3D

 22 25  0  0  0  0  0  0  0  0999 V2000
   -2.6200   -0.9120  -19.6170 C   0  0  0  0  0  0  0  0  0  0  0  0
   -2.4330   -2.3380  -15.8270 O   0  0  0  0  0  0  0  0  0  0  0  0
   -3.8350   -1.2120  -18.9750 C   0  0  0  0  0  0  0  0  0  0  0  0
   -1.4800   -1.1930  -18.9720 C   0  0  0  0  0  0  0  0  0  0  0  0
   -0.0550   -0.8980  -19.3790 C   0  0  0  0  0  0  0  0  0  0  0  0
   -2.5610   -2.0800  -17.0420 C   0  0  0  0  0  0  0  0  0  0  0  0
   -3.8770   -1.6980  -17.6510 C   0  0  0  0  0  0  0  0  0  0  0  0
   -9.5880   -2.9610  -17.0090 C   0  0  0  0  0  0  0  0  0  0  0  0
   -7.2500   -3.5040  -15.6450 C   0  0  0  0  0  0  0  0  0  0  0  0
  -11.0170   -2.7430  -17.9010 Cl  0  0  0  0  0  0  0  0  0  0  0  0
   -6.2510   -1.7890  -17.2580 N   0  0  0  0  0  0  0  0  0  0  0  0
   -9.6280   -3.8720  -16.0270 C   0  0  0  0  0  0  0  0  0  0  0  0
   -8.4140   -4.0970  -15.3570 C   0  0  0  0  0  0  0  0  0  0  0  0
   -0.1960   -2.6150  -17.6150 C   0  0  0  0  0  0  0  0  0  0  0  0
    0.7700   -1.7280  -18.4410 C   0  0  0  0  0  0  0  0  0  0  0  0
   -8.0850   -1.3100  -18.2180 N   0  0  0  0  0  0  0  0  0  0  0  0
   -6.8630   -1.0190  -18.1200 C   0  0  0  0  0  0  0  0  0  0  0  0
   -1.4890   -2.0130  -17.8450 N   0  0  0  0  0  0  0  0  0  0  0  0
   -4.9390   -1.9160  -16.7770 N   0  0  0  0  0  0  0  0  0  0  0  0
   -4.9420   -0.8510  -19.6440 F   0  0  0  0  0  0  0  0  0  0  0  0
   -8.4140   -2.3120  -17.3540 C   0  0  0  0  0  0  0  0  0  0  0  0
   -7.1430   -2.5430  -16.6400 C   0  0  0  0  0  0  0  0  0  0  0  0
  1  3  4  0
  1  4  4  0
  3  7  4  0
  4 18  4  0
  5  4  1  0
  5 15  1  0
  6  2  2  0
  7  6  4  0
  7 19  1  0
  8 12  4  0
  9 13  4  0
 10  8  1  0
 11 19  1  0
 11 22  4  0
 12 13  4  0
 15 14  1  0
 16 17  4  0
 16 21  4  0
 17 11  4  0
 18 14  1  0
 18  6  4  0
 20  3  1  0
 21  8  4  0
 21 22  4  0
 22  9  4  0
M  END
$$$$

     RDKit          3D

 22 25  0  0  0  0  0  0  0  0999 V2000
   -2.4220   -0.9850  -19.4190 C   0  0  0  0  0  0  0  0  0  0  0  0
   -2.4060   -2.8490  -15.6950 C   0  0  0  0  0  0  0  0  0  0  0  0
   -3.6090   -1.1730  -18.8290 C   0  0  0  0  0  0  0  0  0  0  0  0
   -1.3140   -1.4970  -18.9150 C   0  0  0  0  0  0  0  0  0  0  0  0
    0.3800   -1.3170  -19.5180 S   0  0  0  0  0  0  0  0  0  0  0  0
   -2.5080   -2.1860  -16.9780 C   0  0  0  0  0  0  0  0  0  0  0  0
   -3.6750   -1.6700  -17.5520 C   0  0  0  0  0  0  0  0  0  0  0  0
   -9.5700   -3.0550  -16.7260 C   0  0  0  0  0  0  0  0  0  0  0  0
   -7.1820   -3.5170  -15.4100 C   0  0  0  0  0  0  0  0  0  0  0  0
  -10.6180   -2.7600  -17.4010 N   0  0  0  0  0  0  0  0  0  0  0  0
   -6.2130   -1.8790  -17.1320 C   0  0  0  0  0  0  0  0  0  0  0  0
   -9.5370   -3.8650  -15.7120 N   0  0  0  0  0  0  0  0  0  0  0  0
   -8.3710   -4.1100  -15.1200 C   0  0  0  0  0  0  0  0  0  0  0  0
   -0.0520   -2.4210  -17.2750 N   0  0  0  0  0  0  0  0  0  0  0  0
    0.8690   -2.0760  -18.1010 C   0  0  0  0  0  0  0  0  0  0  0  0
   -8.0720   -1.4660  -18.1440 N   0  0  0  0  0  0  0  0  0  0  0  0
   -6.7770   -1.2750  -18.1120 N   0  0  0  0  0  0  0  0  0  0  0  0
   -1.3250   -2.0550  -17.7160 C   0  0  0  0  0  0  0  0  0  0  0  0
   -4.8130   -1.7300  -16.6520 C   0  0  0  0  0  0  0  0  0  0  0  0
   -4.7200   -0.7520  -19.6580 N   0  0  0  0  0  0  0  0  0  0  0  0
   -8.4180   -2.3620  -17.1600 C   0  0  0  0  0  0  0  0  0  0  0  0
   -7.2430   -2.6170  -16.4560 C   0  0  0  0  0  0  0  0  0  0  0  0
  1  4  4  0
  1  3  4  0
  3  7  4  0
  4 18  4  0
  5  4  4  0
  5 15  4  0
  6  2  1  0
  7  6  4  0
  7 19  1  0
  8 12  4  0
  9 13  4  0
 10  8  1  0
 11 19  1  0
 11 22  4  0
 12 13  4  0
 15 14  4  0
 16 17  4  0
 16 21  4  0
 17 11  4  0
 18 14  4  0
 18  6  4  0
 20  3  1  0
 21  8  4  0
 21 22  1  0
 22  9  4  0
M  END
$$$$

     RDKit          3D

 22 25  0  0  0  0  0  0  0  0999 V2000
   -2.4310   -1.0060  -19.6170 N   0  0  0  0  0  0  0  0  0  0  0  0
   -2.7360   -2.6680  -15.5260 C   0  0  0  0  0  0  0  0  0  0  0  0
   -3.6290   -0.9390  -19.0050 C   0  0  0  0  0  0  0  0  0  0  0  0
   -1.4390   -1.6450  -18.9550 C   0  0  0  0  0  0  0  0  0  0  0  0
   -0.0730   -1.8150  -19.3990 C   0  0  0  0  0  0  0  0  0  0  0  0
   -2.6800   -2.0390  -16.9090 C   0  0  0  0  0  0  0  0  0  0  0  0
   -3.8240   -1.5070  -17.6020 C   0  0  0  0  0  0  0  0  0  0  0  0
   -9.5900   -3.1790  -16.8920 C   0  0  0  0  0  0  0  0  0  0  0  0
   -7.1510   -3.7450  -15.6600 C   0  0  0  0  0  0  0  0  0  0  0  0
  -10.6900   -2.8900  -17.5820 N   0  0  0  0  0  0  0  0  0  0  0  0
   -6.2060   -1.8210  -17.2330 C   0  0  0  0  0  0  0  0  0  0  0  0
   -9.5020   -4.1720  -15.9710 N   0  0  0  0  0  0  0  0  0  0  0  0
   -8.3350   -4.3790  -15.3060 C   0  0  0  0  0  0  0  0  0  0  0  0
   -0.5170   -2.9800  -17.6400 O   0  0  0  0  0  0  0  0  0  0  0  0
    0.7070   -2.1150  -18.1390 C   0  0  0  0  0  0  0  0  0  0  0  0
   -8.2700   -1.4850  -18.2250 N   0  0  0  0  0  0  0  0  0  0  0  0
   -6.9690   -1.1140  -18.2010 C   0  0  0  0  0  0  0  0  0  0  0  0
   -1.5460   -2.0060  -17.6520 C   0  0  0  0  0  0  0  0  0  0  0  0
   -4.9600   -1.4650  -16.9020 N   0  0  0  0  0  0  0  0  0  0  0  0
   -4.5740   -0.5660  -19.6710 N   0  0  0  0  0  0  0  0  0  0  0  0
   -8.3890   -2.4830  -17.3450 C   0  0  0  0  0  0  0  0  0  0  0  0
   -7.1040   -2.7340  -16.6030 C   0  0  0  0  0  0  0  0  0  0  0  0
  1  3  4  0
  1  4  4  0
  3  7  4  0
  4 18  4  0
  5  4  1  0
  5 15  1  0
  6  2  1  0
  7  6  4  0
  7 19  1  0
  8 12  4  0
  9 13  4  0
 10  8  1  0
 11 19  1  0
 11 22  4  0
 12 13  4  0
 15 14  1  0
 16 17  4  0
 16 21  4  0
 17 11  4  0
 18 14  1  0
 18  6  4  0
 20  3  1  0
 21  8  4  0
 21 22  1  0
 22  9  4  0
M  END
$$$$

     RDKit          3D

 22 25  0  0  0  0  0  0  0  0999 V2000
   -2.5870   -1.1880  -20.1200 C   0  0  0  0  0  0  0  0  0  0  0  0
   -2.5260   -2.3180  -16.2660 O   0  0  0  0  0  0  0  0  0  0  0  0
   -3.7710   -1.0840  -19.3760 C   0  0  0  0  0  0  0  0  0  0  0  0
   -1.4440   -1.7200  -19.4400 C   0  0  0  0  0  0  0  0  0  0  0  0
   -0.1350   -1.7380  -20.1660 C   0  0  0  0  0  0  0  0  0  0  0  0
   -2.5300   -1.9810  -17.5310 C   0  0  0  0  0  0  0  0  0  0  0  0
   -3.7700   -1.4090  -18.0120 C   0  0  0  0  0  0  0  0  0  0  0  0
   -9.6450   -2.8300  -16.8880 C   0  0  0  0  0  0  0  0  0  0  0  0
   -7.1790   -3.2490  -15.6950 C   0  0  0  0  0  0  0  0  0  0  0  0
  -10.9880   -2.6390  -17.5350 C   0  0  0  0  0  0  0  0  0  0  0  0
   -6.2950   -1.5000  -17.4820 C   0  0  0  0  0  0  0  0  0  0  0  0
   -9.5410   -3.7530  -15.9600 N   0  0  0  0  0  0  0  0  0  0  0  0
   -8.3520   -3.9280  -15.3370 C   0  0  0  0  0  0  0  0  0  0  0  0
   -0.1490   -2.0240  -17.7440 C   0  0  0  0  0  0  0  0  0  0  0  0
    0.7000   -1.5380  -18.8840 C   0  0  0  0  0  0  0  0  0  0  0  0
   -8.3140   -1.1140  -18.4250 N   0  0  0  0  0  0  0  0  0  0  0  0
   -7.0700   -0.8680  -18.4620 C   0  0  0  0  0  0  0  0  0  0  0  0
   -1.4810   -2.0340  -18.2650 N   0  0  0  0  0  0  0  0  0  0  0  0
   -4.8980   -1.2220  -17.0700 C   0  0  0  0  0  0  0  0  0  0  0  0
   -4.6910   -0.7030  -20.0730 F   0  0  0  0  0  0  0  0  0  0  0  0
   -8.5340   -2.0240  -17.3670 C   0  0  0  0  0  0  0  0  0  0  0  0
   -7.2960   -2.3220  -16.7400 C   0  0  0  0  0  0  0  0  0  0  0  0
  1  4  4  0
  1  3  4  0
  3  7  4  0
  4 18  4  0
  5  4  1  0
  5 15  1  0
  6  2  2  0
  7  6  4  0
  7 19  1  0
  8 12  4  0
  9 13  4  0
 10  8  1  0
 11 19  1  0
 11 22  4  0
 12 13  4  0
 15 14  1  0
 16 21  4  0
 17 16  4  0
 17 11  4  0
 18 14  1  0
 18  6  4  0
 20  3  1  0
 21  8  4  0
 21 22  1  0
 22  9  4  0
M  END
$$$$

     RDKit          3D

 22 25  0  0  0  0  0  0  0  0999 V2000
   -2.3110   -0.9310  -19.6990 C   0  0  0  0  0  0  0  0  0  0  0  0
   -2.3720   -2.3400  -15.8720 O   0  0  0  0  0  0  0  0  0  0  0  0
   -3.5890   -0.9930  -18.9580 C   0  0  0  0  0  0  0  0  0  0  0  0
   -1.3410   -1.9970  -19.3060 C   0  0  0  0  0  0  0  0  0  0  0  0
    0.0610   -1.6400  -19.6030 C   0  0  0  0  0  0  0  0  0  0  0  0
   -2.4430   -2.1530  -17.0720 C   0  0  0  0  0  0  0  0  0  0  0  0
   -3.6150   -1.6550  -17.6110 C   0  0  0  0  0  0  0  0  0  0  0  0
   -9.4240   -2.7950  -17.1870 C   0  0  0  0  0  0  0  0  0  0  0  0
   -7.0250   -3.3150  -15.7750 C   0  0  0  0  0  0  0  0  0  0  0  0
  -10.5300   -2.6850  -17.8120 O   0  0  0  0  0  0  0  0  0  0  0  0
   -6.0690   -1.7360  -17.3550 C   0  0  0  0  0  0  0  0  0  0  0  0
   -9.3670   -3.6540  -16.0950 N   0  0  0  0  0  0  0  0  0  0  0  0
   -8.2380   -3.9130  -15.4060 C   0  0  0  0  0  0  0  0  0  0  0  0
   -0.0170   -2.2960  -17.2410 C   0  0  0  0  0  0  0  0  0  0  0  0
    0.8660   -1.6630  -18.2580 C   0  0  0  0  0  0  0  0  0  0  0  0
   -7.9710   -1.3260  -18.4240 N   0  0  0  0  0  0  0  0  0  0  0  0
   -6.6230   -1.0290  -18.4000 C   0  0  0  0  0  0  0  0  0  0  0  0
   -1.3580   -2.3620  -17.8510 N   0  0  0  0  0  0  0  0  0  0  0  0
   -4.8610   -1.7260  -16.9260 C   0  0  0  0  0  0  0  0  0  0  0  0
   -4.4190   -0.4490  -19.4650 O   0  0  0  0  0  0  0  0  0  0  0  0
   -8.2740   -2.2180  -17.5080 C   0  0  0  0  0  0  0  0  0  0  0  0
   -7.0780   -2.4390  -16.8560 C   0  0  0  0  0  0  0  0  0  0  0  0
  1  3  1  0
  3  7  1  0
  4  1  1  0
  4 18  1  0
  5  4  1  0
  5 15  1  0
  6  2  2  0
  7  6  1  0
  7 19  1  0
  8 12  1  0
  9 13  1  0
 10  8  2  0
 11 19  1  0
 11 22  1  0
 12 13  2  0
 15 14  1  0
 16 17  1  0
 16 21  2  0
 17 11  2  0
 18 14  1  0
 18  6  1  0
 20  3  2  0
 21  8  1  0
 21 22  1  0
 22  9  2  0
M  END
$$$$

     RDKit          3D

 22 24  0  0  0  0  0  0  0  0999 V2000
   -2.5450   -0.9340  -19.6720 C   0  0  0  0  0  0  0  0  0  0  0  0
   -2.5150   -2.3160  -15.8210 C   0  0  0  0  0  0  0  0  0  0  0  0
   -3.8220   -1.0860  -19.0810 C   0  0  0  0  0  0  0  0  0  0  0  0
   -1.5170   -1.3420  -19.1260 C   0  0  0  0  0  0  0  0  0  0  0  0
   -0.1530   -1.6670  -19.8100 C   0  0  0  0  0  0  0  0  0  0  0  0
   -2.7270   -1.5440  -17.1560 C   0  0  0  0  0  0  0  0  0  0  0  0
   -3.8930   -1.5200  -17.7580 C   0  0  0  0  0  0  0  0  0  0  0  0
   -9.4660   -2.8760  -16.9980 C   0  0  0  0  0  0  0  0  0  0  0  0
   -7.1670   -3.5080  -15.5940 C   0  0  0  0  0  0  0  0  0  0  0  0
  -10.6580   -2.5550  -17.6260 O   0  0  0  0  0  0  0  0  0  0  0  0
   -6.1620   -1.8520  -17.2180 C   0  0  0  0  0  0  0  0  0  0  0  0
   -9.4700   -3.7910  -16.0380 C   0  0  0  0  0  0  0  0  0  0  0  0
   -8.2870   -4.1380  -15.2940 C   0  0  0  0  0  0  0  0  0  0  0  0
   -0.3310   -2.0840  -17.4570 O   0  0  0  0  0  0  0  0  0  0  0  0
    1.0730   -1.4270  -17.4610 C   0  0  0  0  0  0  0  0  0  0  0  0
   -8.1180   -1.3820  -18.2110 N   0  0  0  0  0  0  0  0  0  0  0  0
   -6.8140   -1.2260  -18.1830 C   0  0  0  0  0  0  0  0  0  0  0  0
   -1.5540   -1.7440  -17.9460 C   0  0  0  0  0  0  0  0  0  0  0  0
   -4.9250   -1.9750  -16.8840 C   0  0  0  0  0  0  0  0  0  0  0  0
   -5.0260   -0.6530  -20.2170 Cl  0  0  0  0  0  0  0  0  0  0  0  0
   -8.3070   -2.2690  -17.2890 C   0  0  0  0  0  0  0  0  0  0  0  0
   -7.2330   -2.5900  -16.6400 C   0  0  0  0  0  0  0  0  0  0  0  0
  1  4  4  0
  1  3  4  0
  3  7  4  0
  4 18  4  0
  5  4  1  0
  6  2  1  0
  7  6  4  0
  7 19  1  0
  8 12  1  0
  9 13  2  0
 10  8  1  0
 11 19  1  0
 11 22  2  0
 12 13  1  0
 15 14  1  0
 16 17  2  0
 16 21  1  0
 17 11  1  0
 18 14  1  0
 18  6  4  0
 20  3  1  0
 21  8  2  0
 21 22  1  0
 22  9  1  0
M  END
$$$$
