
     RDKit          3D

 19 21  0  0  0  0  0  0  0  0999 V2000
   -4.3410   -2.3410  -16.1890 C   0  0  0  0  0  0  0  0  0  0  0  0
   -5.5630   -1.5560  -18.1850 C   0  0  0  0  0  0  0  0  0  0  0  0
   -0.5590    0.6500  -19.8890 C   0  0  0  0  0  0  0  0  0  0  0  0
   -9.1800   -2.8500  -16.5980 F   0  0  0  0  0  0  0  0  0  0  0  0
   -3.0840   -1.4830  -18.0770 C   0  0  0  0  0  0  0  0  0  0  0  0
   -4.3450   -1.1200  -18.7120 C   0  0  0  0  0  0  0  0  0  0  0  0
   -0.0270    0.4040  -18.5780 C   0  0  0  0  0  0  0  0  0  0  0  0
   -8.0020   -2.4240  -17.0770 C   0  0  0  0  0  0  0  0  0  0  0  0
   -0.5010   -1.0230  -18.1390 C   0  0  0  0  0  0  0  0  0  0  0  0
   -6.7250   -1.2490  -18.8010 C   0  0  0  0  0  0  0  0  0  0  0  0
   -1.8370   -1.4110  -20.1650 C   0  0  0  0  0  0  0  0  0  0  0  0
   -3.0630   -1.9210  -16.8370 C   0  0  0  0  0  0  0  0  0  0  0  0
   -7.9260   -1.6650  -18.2890 C   0  0  0  0  0  0  0  0  0  0  0  0
   -2.0060   -2.0750  -16.1620 O   0  0  0  0  0  0  0  0  0  0  0  0
   -6.8110   -2.6920  -16.4060 C   0  0  0  0  0  0  0  0  0  0  0  0
   -5.5440   -2.2090  -16.9250 C   0  0  0  0  0  0  0  0  0  0  0  0
   -0.5890   -0.6170  -20.6670 C   0  0  0  0  0  0  0  0  0  0  0  0
   -1.8550   -1.2280  -18.7540 N   0  0  0  0  0  0  0  0  0  0  0  0
   -6.9170   -3.5790  -15.0050 Cl  0  0  0  0  0  0  0  0  0  0  0  0
  2 16  4  0
  3  7  1  0
  5 18  1  0
  5 12  1  0
  6  2  1  0
  6  5  1  0
  7  9  1  0
  8  4  1  0
  8 15  4  0
 10 13  4  0
 10  2  4  0
 11 18  1  0
 12  1  1  0
 12 14  2  0
 13  8  4  0
 15 19  1  0
 16 15  4  0
 16  1  1  0
 17 11  1  0
 17  3  1  0
 18  9  1  0
M  END
$$$$

     RDKit          3D

 19 21  0  0  0  0  0  0  0  0999 V2000
   -4.2670   -2.7220  -16.5000 C   0  0  0  0  0  0  0  0  0  0  0  0
   -5.5770   -1.6240  -18.3250 C   0  0  0  0  0  0  0  0  0  0  0  0
   -0.5160    0.4100  -20.0310 O   0  0  0  0  0  0  0  0  0  0  0  0
   -9.1650   -2.4590  -16.3860 O   0  0  0  0  0  0  0  0  0  0  0  0
   -3.0910   -1.5550  -18.2590 C   0  0  0  0  0  0  0  0  0  0  0  0
   -4.2690   -1.2280  -18.8590 C   0  0  0  0  0  0  0  0  0  0  0  0
    0.0570    0.2590  -18.7140 C   0  0  0  0  0  0  0  0  0  0  0  0
   -7.9850   -2.2060  -17.0100 C   0  0  0  0  0  0  0  0  0  0  0  0
   -1.0100   -0.4090  -17.9220 C   0  0  0  0  0  0  0  0  0  0  0  0
   -6.7560   -1.3530  -18.9170 C   0  0  0  0  0  0  0  0  0  0  0  0
   -1.2540   -1.9190  -19.8010 C   0  0  0  0  0  0  0  0  0  0  0  0
   -3.0320   -2.3420  -17.0420 C   0  0  0  0  0  0  0  0  0  0  0  0
   -7.9570   -1.6010  -18.2820 C   0  0  0  0  0  0  0  0  0  0  0  0
   -1.9040   -2.5700  -16.4760 O   0  0  0  0  0  0  0  0  0  0  0  0
   -6.7920   -2.5890  -16.4430 C   0  0  0  0  0  0  0  0  0  0  0  0
   -5.5520   -2.3420  -17.0550 C   0  0  0  0  0  0  0  0  0  0  0  0
   -0.4130   -0.9280  -20.5810 C   0  0  0  0  0  0  0  0  0  0  0  0
   -1.8250   -1.2150  -18.5740 N   0  0  0  0  0  0  0  0  0  0  0  0
   -6.9870   -3.1840  -15.0010 Cl  0  0  0  0  0  0  0  0  0  0  0  0
  2 16  4  0
  3  7  1  0
  5 12  4  0
  6  2  4  0
  6  5  4  0
  7  9  1  0
  8 15  4  0
  8  4  1  0
 10  2  4  0
 10 13  4  0
 11 18  1  0
 12  1  4  0
 12 14  1  0
 13  8  4  0
 15 19  1  0
 16  1  4  0
 16 15  4  0
 17  3  1  0
 17 11  1  0
 18  5  1  0
 18  9  1  0
M  END
$$$$

     RDKit          3D

 19 21  0  0  0  0  0  0  0  0999 V2000
   -4.3250   -2.4650  -16.2120 C   0  0  0  0  0  0  0  0  0  0  0  0
   -5.5150   -1.4340  -18.0310 C   0  0  0  0  0  0  0  0  0  0  0  0
    0.3480   -0.0890  -20.3100 C   0  0  0  0  0  0  0  0  0  0  0  0
   -9.2540   -2.8680  -16.6440 C   0  0  0  0  0  0  0  0  0  0  0  0
   -3.1170   -0.9170  -17.8710 C   0  0  0  0  0  0  0  0  0  0  0  0
   -4.4350   -1.0110  -18.5110 C   0  0  0  0  0  0  0  0  0  0  0  0
    0.3030    0.3510  -18.7140 C   0  0  0  0  0  0  0  0  0  0  0  0
   -7.9160   -2.3280  -17.0590 C   0  0  0  0  0  0  0  0  0  0  0  0
   -1.1010    0.3620  -18.1780 C   0  0  0  0  0  0  0  0  0  0  0  0
   -6.6710   -1.1000  -18.5910 N   0  0  0  0  0  0  0  0  0  0  0  0
   -1.6960   -1.4610  -19.8730 C   0  0  0  0  0  0  0  0  0  0  0  0
   -3.0920   -2.0030  -16.7030 C   0  0  0  0  0  0  0  0  0  0  0  0
   -7.8630   -1.4260  -18.1490 C   0  0  0  0  0  0  0  0  0  0  0  0
   -1.9300   -2.3410  -16.1320 F   0  0  0  0  0  0  0  0  0  0  0  0
   -6.7470   -2.6450  -16.4440 C   0  0  0  0  0  0  0  0  0  0  0  0
   -5.5040   -2.2010  -16.8820 C   0  0  0  0  0  0  0  0  0  0  0  0
   -0.3280   -1.1920  -20.5140 C   0  0  0  0  0  0  0  0  0  0  0  0
   -1.8620   -0.8760  -18.5490 N   0  0  0  0  0  0  0  0  0  0  0  0
   -6.7810   -3.6500  -15.0350 Cl  0  0  0  0  0  0  0  0  0  0  0  0
  2 16  4  0
  3  7  1  0
  5 18  1  0
  5 12  1  0
  6  2  1  0
  6  5  1  0
  7  9  1  0
  8  4  1  0
  8 15  4  0
 10 13  4  0
 10  2  4  0
 11 18  1  0
 12  1  2  0
 12 14  1  0
 13  8  4  0
 15 19  1  0
 16 15  4  0
 16  1  1  0
 17  3  1  0
 17 11  1  0
 18  9  1  0
M  END
$$$$

     RDKit          3D

 19 21  0  0  0  0  0  0  0  0999 V2000
   -4.4400   -2.3960  -16.3160 C   0  0  0  0  0  0  0  0  0  0  0  0
   -5.7150   -1.4220  -18.1160 C   0  0  0  0  0  0  0  0  0  0  0  0
    0.0110    0.3010  -20.0090 O   0  0  0  0  0  0  0  0  0  0  0  0
   -9.2430   -2.6790  -16.6190 O   0  0  0  0  0  0  0  0  0  0  0  0
   -3.3290   -1.2800  -18.0820 C   0  0  0  0  0  0  0  0  0  0  0  0
   -4.5100   -1.0470  -18.6830 C   0  0  0  0  0  0  0  0  0  0  0  0
   -0.1100    0.4270  -18.8390 C   0  0  0  0  0  0  0  0  0  0  0  0
   -8.1150   -2.2570  -16.9940 C   0  0  0  0  0  0  0  0  0  0  0  0
   -1.4270    0.2940  -18.0730 C   0  0  0  0  0  0  0  0  0  0  0  0
   -6.8820   -1.0890  -18.7640 C   0  0  0  0  0  0  0  0  0  0  0  0
   -1.6550   -1.4380  -19.8130 C   0  0  0  0  0  0  0  0  0  0  0  0
   -3.2820   -1.9530  -16.9130 C   0  0  0  0  0  0  0  0  0  0  0  0
   -8.0800   -1.4710  -18.2310 C   0  0  0  0  0  0  0  0  0  0  0  0
   -2.0300   -2.2340  -16.0820 C   0  0  0  0  0  0  0  0  0  0  0  0
   -6.9060   -2.5270  -16.3970 C   0  0  0  0  0  0  0  0  0  0  0  0
   -5.7020   -2.1470  -16.9470 C   0  0  0  0  0  0  0  0  0  0  0  0
   -0.4530   -0.9510  -20.5920 C   0  0  0  0  0  0  0  0  0  0  0  0
   -2.1880   -0.8510  -18.7060 N   0  0  0  0  0  0  0  0  0  0  0  0
   -6.8450   -3.4190  -14.9640 Cl  0  0  0  0  0  0  0  0  0  0  0  0
  2 16  4  0
  3  7  1  0
  5 12  4  0
  6  2  4  0
  6  5  4  0
  7  9  1  0
  8  4  2  0
  8 15  1  0
 10 13  2  0
 10  2  1  0
 11 18  1  0
 12  1  4  0
 12 14  1  0
 13  8  1  0
 15 19  1  0
 16 15  1  0
 16  1  4  0
 17  3  1  0
 17 11  1  0
 18  5  1  0
 18  9  1  0
M  END
$$$$

     RDKit          3D

 19 21  0  0  0  0  0  0  0  0999 V2000
   -4.2180   -2.4690  -16.1990 C   0  0  0  0  0  0  0  0  0  0  0  0
   -5.4210   -1.5610  -18.0820 C   0  0  0  0  0  0  0  0  0  0  0  0
   -0.4770    0.7490  -19.7680 N   0  0  0  0  0  0  0  0  0  0  0  0
   -8.9110   -2.8750  -16.3790 O   0  0  0  0  0  0  0  0  0  0  0  0
   -2.9990   -1.3550  -17.9670 C   0  0  0  0  0  0  0  0  0  0  0  0
   -4.2050   -1.1940  -18.6810 C   0  0  0  0  0  0  0  0  0  0  0  0
   -0.0250    0.4580  -18.4510 C   0  0  0  0  0  0  0  0  0  0  0  0
   -7.8190   -2.4290  -17.0080 C   0  0  0  0  0  0  0  0  0  0  0  0
   -0.4610   -0.9480  -18.0040 C   0  0  0  0  0  0  0  0  0  0  0  0
   -6.6090   -1.3210  -18.7180 C   0  0  0  0  0  0  0  0  0  0  0  0
   -1.7840   -1.2440  -20.0400 C   0  0  0  0  0  0  0  0  0  0  0  0
   -3.0120   -1.9240  -16.7670 C   0  0  0  0  0  0  0  0  0  0  0  0
   -7.7550   -1.7340  -18.1970 C   0  0  0  0  0  0  0  0  0  0  0  0
   -1.7440   -1.9270  -15.9740 C   0  0  0  0  0  0  0  0  0  0  0  0
   -6.6200   -2.6120  -16.3920 C   0  0  0  0  0  0  0  0  0  0  0  0
   -5.4290   -2.2100  -16.8980 C   0  0  0  0  0  0  0  0  0  0  0  0
   -0.5120   -0.5660  -20.5060 C   0  0  0  0  0  0  0  0  0  0  0  0
   -1.8250   -1.0660  -18.5870 N   0  0  0  0  0  0  0  0  0  0  0  0
   -6.6080   -3.3030  -14.8830 Cl  0  0  0  0  0  0  0  0  0  0  0  0
  2 16  4  0
  3  7  1  0
  5 12  4  0
  6  2  4  0
  6  5  4  0
  7  9  1  0
  8 15  4  0
  8  4  1  0
 10 13  4  0
 10  2  4  0
 11 18  1  0
 12  1  4  0
 12 14  1  0
 13  8  4  0
 15 19  1  0
 16 15  4  0
 16  1  4  0
 17 11  1  0
 17  3  1  0
 18  9  1  0
 18  5  1  0
M  END
$$$$

     RDKit          3D

 19 20  0  0  0  0  0  0  0  0999 V2000
   -4.4860   -2.5920  -16.0890 N   0  0  0  0  0  0  0  0  0  0  0  0
   -5.5760   -1.6000  -17.9500 C   0  0  0  0  0  0  0  0  0  0  0  0
    0.0920    0.0960  -20.3410 S   0  0  0  0  0  0  0  0  0  0  0  0
   -9.3220   -2.6650  -16.3750 F   0  0  0  0  0  0  0  0  0  0  0  0
   -3.2380   -1.6980  -17.9510 C   0  0  0  0  0  0  0  0  0  0  0  0
   -4.3480   -1.3440  -18.5040 O   0  0  0  0  0  0  0  0  0  0  0  0
   -0.3370    0.5740  -18.6670 C   0  0  0  0  0  0  0  0  0  0  0  0
   -8.0850   -2.2150  -16.8690 C   0  0  0  0  0  0  0  0  0  0  0  0
   -1.0950   -0.5210  -17.8760 C   0  0  0  0  0  0  0  0  0  0  0  0
   -6.7910   -1.1850  -18.5470 C   0  0  0  0  0  0  0  0  0  0  0  0
   -1.2930   -2.5020  -19.3100 C   0  0  0  0  0  0  0  0  0  0  0  0
   -3.2750   -2.2070  -16.5160 C   0  0  0  0  0  0  0  0  0  0  0  0
   -7.9880   -1.4710  -18.0000 C   0  0  0  0  0  0  0  0  0  0  0  0
   -2.2930   -2.2880  -15.8810 O   0  0  0  0  0  0  0  0  0  0  0  0
   -6.8800   -2.6810  -16.1890 C   0  0  0  0  0  0  0  0  0  0  0  0
   -5.6260   -2.2900  -16.7660 C   0  0  0  0  0  0  0  0  0  0  0  0
   -0.2400   -1.4430  -20.8440 C   0  0  0  0  0  0  0  0  0  0  0  0
   -1.9440   -1.4780  -18.7380 C   0  0  0  0  0  0  0  0  0  0  0  0
   -6.8500   -3.4390  -15.0360 N   0  0  0  0  0  0  0  0  0  0  0  0
  2 16  4  0
  3  7  1  0
  5 18  1  0
  5 12  1  0
  6  5  1  0
  6  2  1  0
  7  9  1  0
  8  4  1  0
  8 15  4  0
 10 13  4  0
 10  2  4  0
 12  1  1  0
 12 14  2  0
 13  8  4  0
 15 19  1  0
 16 15  4  0
 16  1  1  0
 17  3  1  0
 18 11  1  0
 18  9  1  0
M  END
$$$$

     RDKit          3D

 19 21  0  0  0  0  0  0  0  0999 V2000
   -4.3840   -2.4180  -16.0810 C   0  0  0  0  0  0  0  0  0  0  0  0
   -5.4810   -1.5790  -18.1440 C   0  0  0  0  0  0  0  0  0  0  0  0
   -0.0700    0.6370  -19.8280 C   0  0  0  0  0  0  0  0  0  0  0  0
   -9.1530   -2.8450  -16.6720 O   0  0  0  0  0  0  0  0  0  0  0  0
   -2.9820   -1.5260  -18.0000 C   0  0  0  0  0  0  0  0  0  0  0  0
   -4.1990   -1.2320  -18.6860 C   0  0  0  0  0  0  0  0  0  0  0  0
   -0.0550    0.5410  -18.2810 C   0  0  0  0  0  0  0  0  0  0  0  0
   -8.0110   -2.3990  -17.1740 C   0  0  0  0  0  0  0  0  0  0  0  0
   -0.6330   -0.7190  -17.6940 C   0  0  0  0  0  0  0  0  0  0  0  0
   -6.6650   -1.3000  -18.8970 C   0  0  0  0  0  0  0  0  0  0  0  0
   -1.3090   -1.6510  -19.7960 C   0  0  0  0  0  0  0  0  0  0  0  0
   -3.1460   -2.1530  -16.6390 C   0  0  0  0  0  0  0  0  0  0  0  0
   -7.8440   -1.7210  -18.3830 C   0  0  0  0  0  0  0  0  0  0  0  0
   -2.1620   -2.4360  -15.9540 O   0  0  0  0  0  0  0  0  0  0  0  0
   -6.8440   -2.6410  -16.3880 C   0  0  0  0  0  0  0  0  0  0  0  0
   -5.5270   -2.2280  -16.8690 C   0  0  0  0  0  0  0  0  0  0  0  0
   -0.6850   -0.5070  -20.6430 C   0  0  0  0  0  0  0  0  0  0  0  0
   -1.7590   -1.1610  -18.5080 N   0  0  0  0  0  0  0  0  0  0  0  0
   -7.0500   -3.4790  -14.9590 Cl  0  0  0  0  0  0  0  0  0  0  0  0
  2 16  4  0
  3  7  2  0
  5 12  1  0
  6  2  1  0
  6  5  2  0
  7  9  1  0
  8  4  1  0
  8 15  4  0
 10 13  4  0
 10  2  4  0
 11 18  1  0
 12  1  1  0
 12 14  2  0
 13  8  4  0
 15 19  1  0
 16 15  4  0
 16  1  1  0
 17  3  1  0
 17 11  1  0
 18  5  1  0
 18  9  1  0
M  END
$$$$

     RDKit          3D

 19 21  0  0  0  0  0  0  0  0999 V2000
   -4.2150   -2.3240  -16.1600 C   0  0  0  0  0  0  0  0  0  0  0  0
   -5.4840   -1.5560  -18.1460 C   0  0  0  0  0  0  0  0  0  0  0  0
    0.0550    0.7200  -20.0030 N   0  0  0  0  0  0  0  0  0  0  0  0
   -9.2130   -2.7540  -16.5830 O   0  0  0  0  0  0  0  0  0  0  0  0
   -3.0640   -1.2800  -18.0100 C   0  0  0  0  0  0  0  0  0  0  0  0
   -4.2560   -1.1370  -18.6690 C   0  0  0  0  0  0  0  0  0  0  0  0
   -0.1310    0.8390  -18.5340 C   0  0  0  0  0  0  0  0  0  0  0  0
   -7.9640   -2.3420  -17.0300 C   0  0  0  0  0  0  0  0  0  0  0  0
   -0.7460   -0.2560  -17.9130 C   0  0  0  0  0  0  0  0  0  0  0  0
   -6.6640   -1.3160  -18.8500 C   0  0  0  0  0  0  0  0  0  0  0  0
   -1.8000   -0.8920  -20.0950 C   0  0  0  0  0  0  0  0  0  0  0  0
   -3.0640   -1.7620  -16.7080 C   0  0  0  0  0  0  0  0  0  0  0  0
   -7.9000   -1.6670  -18.3210 C   0  0  0  0  0  0  0  0  0  0  0  0
   -1.8100   -1.6050  -16.0640 O   0  0  0  0  0  0  0  0  0  0  0  0
   -6.7750   -2.6040  -16.3830 C   0  0  0  0  0  0  0  0  0  0  0  0
   -5.5020   -2.1600  -16.8560 C   0  0  0  0  0  0  0  0  0  0  0  0
   -0.6190   -0.2500  -20.7350 C   0  0  0  0  0  0  0  0  0  0  0  0
   -1.8940   -0.8540  -18.6000 N   0  0  0  0  0  0  0  0  0  0  0  0
   -6.7480   -3.3530  -14.8710 Cl  0  0  0  0  0  0  0  0  0  0  0  0
  2 16  4  0
  3  7  2  0
  5 12  4  0
  6  2  4  0
  6  5  4  0
  7  9  1  0
  8  4  1  0
  8 15  4  0
 10 13  4  0
 10  2  4  0
 11 18  1  0
 12  1  4  0
 12 14  1  0
 13  8  4  0
 15 19  1  0
 16 15  4  0
 16  1  4  0
 17 11  2  0
 17  3  1  0
 18  5  1  0
 18  9  1  0
M  END
$$$$

     RDKit          3D

 19 21  0  0  0  0  0  0  0  0999 V2000
   -4.1420   -2.5270  -16.2280 C   0  0  0  0  0  0  0  0  0  0  0  0
   -5.3030   -1.6530  -18.0440 C   0  0  0  0  0  0  0  0  0  0  0  0
   -0.4470    0.6050  -20.0150 O   0  0  0  0  0  0  0  0  0  0  0  0
   -9.1270   -2.5900  -16.5300 O   0  0  0  0  0  0  0  0  0  0  0  0
   -2.9290   -1.4860  -17.9360 N   0  0  0  0  0  0  0  0  0  0  0  0
   -4.1130   -1.3620  -18.5730 C   0  0  0  0  0  0  0  0  0  0  0  0
    0.2630    0.5290  -18.4170 C   0  0  0  0  0  0  0  0  0  0  0  0
   -7.8960   -2.3150  -16.9860 C   0  0  0  0  0  0  0  0  0  0  0  0
   -0.6060   -0.5440  -17.8860 C   0  0  0  0  0  0  0  0  0  0  0  0
   -6.4810   -1.3090  -18.7290 C   0  0  0  0  0  0  0  0  0  0  0  0
   -1.4870   -1.3710  -20.0230 C   0  0  0  0  0  0  0  0  0  0  0  0
   -2.8860   -2.0640  -16.7520 C   0  0  0  0  0  0  0  0  0  0  0  0
   -7.7480   -1.6380  -18.2270 C   0  0  0  0  0  0  0  0  0  0  0  0
   -1.9060   -2.2920  -16.0420 O   0  0  0  0  0  0  0  0  0  0  0  0
   -6.7340   -2.6360  -16.3280 C   0  0  0  0  0  0  0  0  0  0  0  0
   -5.3580   -2.2770  -16.7920 C   0  0  0  0  0  0  0  0  0  0  0  0
   -0.2360   -0.6010  -20.5100 C   0  0  0  0  0  0  0  0  0  0  0  0
   -1.8900   -0.7840  -18.6760 C   0  0  0  0  0  0  0  0  0  0  0  0
   -6.9150   -3.4350  -14.8910 Cl  0  0  0  0  0  0  0  0  0  0  0  0
  2 16  4  0
  3  7  1  0
  5 12  1  0
  6  2  1  0
  6  5  1  0
  7  9  1  0
  8  4  1  0
  8 15  4  0
 10 13  4  0
 10  2  4  0
 11 18  1  0
 12  1  1  0
 12 14  2  0
 13  8  4  0
 15 19  1  0
 16 15  4  0
 16  1  1  0
 17 11  1  0
 17  3  1  0
 18  5  1  0
 18  9  1  0
M  END
$$$$

     RDKit          3D

 19 21  0  0  0  0  0  0  0  0999 V2000
   -4.3710   -2.4710  -16.1710 C   0  0  0  0  0  0  0  0  0  0  0  0
   -5.5580   -1.5340  -18.1170 C   0  0  0  0  0  0  0  0  0  0  0  0
   -0.1750    0.3720  -20.2290 O   0  0  0  0  0  0  0  0  0  0  0  0
   -9.3070   -2.8000  -16.6500 O   0  0  0  0  0  0  0  0  0  0  0  0
   -3.1390   -1.3170  -17.8980 C   0  0  0  0  0  0  0  0  0  0  0  0
   -4.3560   -1.0750  -18.5420 C   0  0  0  0  0  0  0  0  0  0  0  0
    0.3250    0.4170  -18.8930 C   0  0  0  0  0  0  0  0  0  0  0  0
   -7.9940   -2.3530  -17.0730 C   0  0  0  0  0  0  0  0  0  0  0  0
   -1.0480    0.4160  -18.1290 C   0  0  0  0  0  0  0  0  0  0  0  0
   -6.6600   -1.3830  -18.8050 N   0  0  0  0  0  0  0  0  0  0  0  0
   -1.5680   -1.6510  -19.7310 C   0  0  0  0  0  0  0  0  0  0  0  0
   -3.2120   -1.9970  -16.7120 C   0  0  0  0  0  0  0  0  0  0  0  0
   -7.8930   -1.7430  -18.4200 C   0  0  0  0  0  0  0  0  0  0  0  0
   -1.9750   -2.1630  -15.9310 C   0  0  0  0  0  0  0  0  0  0  0  0
   -6.8590   -2.4930  -16.3490 N   0  0  0  0  0  0  0  0  0  0  0  0
   -5.5440   -2.2170  -16.8910 C   0  0  0  0  0  0  0  0  0  0  0  0
   -0.4030   -1.1110  -20.5270 C   0  0  0  0  0  0  0  0  0  0  0  0
   -2.0710   -0.6600  -18.6020 N   0  0  0  0  0  0  0  0  0  0  0  0
   -6.9260   -3.1590  -15.0810 C   0  0  0  0  0  0  0  0  0  0  0  0
  2 16  4  0
  3  7  1  0
  5 12  4  0
  6  2  4  0
  6  5  4  0
  7  9  1  0
  8  4  2  0
  8 15  4  0
 10 13  4  0
 10  2  4  0
 11 18  1  0
 12  1  4  0
 12 14  1  0
 13  8  4  0
 15 19  1  0
 16 15  4  0
 16  1  4  0
 17  3  1  0
 17 11  1  0
 18  9  1  0
 18  5  1  0
M  END
$$$$

     RDKit          3D

 19 21  0  0  0  0  0  0  0  0999 V2000
   -4.5120   -2.2090  -16.3380 N   0  0  0  0  0  0  0  0  0  0  0  0
   -5.6860   -1.3830  -18.2000 C   0  0  0  0  0  0  0  0  0  0  0  0
    0.1470    0.1850  -20.0750 N   0  0  0  0  0  0  0  0  0  0  0  0
   -9.1620   -2.8970  -16.8100 O   0  0  0  0  0  0  0  0  0  0  0  0
   -3.3130   -1.1630  -18.0820 C   0  0  0  0  0  0  0  0  0  0  0  0
   -4.5190   -0.9330  -18.7200 N   0  0  0  0  0  0  0  0  0  0  0  0
    0.2940   -0.1970  -18.6890 C   0  0  0  0  0  0  0  0  0  0  0  0
   -8.0290   -2.3590  -17.1960 C   0  0  0  0  0  0  0  0  0  0  0  0
   -1.0940    0.3220  -18.1700 C   0  0  0  0  0  0  0  0  0  0  0  0
   -6.8190   -1.2550  -18.8560 C   0  0  0  0  0  0  0  0  0  0  0  0
   -1.6430   -1.4560  -19.8710 C   0  0  0  0  0  0  0  0  0  0  0  0
   -3.3220   -1.8180  -16.9140 C   0  0  0  0  0  0  0  0  0  0  0  0
   -8.0210   -1.7490  -18.4210 C   0  0  0  0  0  0  0  0  0  0  0  0
   -2.0330   -2.1720  -16.2490 C   0  0  0  0  0  0  0  0  0  0  0  0
   -6.8510   -2.5380  -16.5090 N   0  0  0  0  0  0  0  0  0  0  0  0
   -5.6690   -2.0600  -16.9980 C   0  0  0  0  0  0  0  0  0  0  0  0
   -0.4840   -0.9550  -20.6670 C   0  0  0  0  0  0  0  0  0  0  0  0
   -2.1230   -0.5440  -18.7760 C   0  0  0  0  0  0  0  0  0  0  0  0
   -6.8950   -3.2430  -15.2280 C   0  0  0  0  0  0  0  0  0  0  0  0
  2 16  4  0
  3  7  1  0
  5 12  4  0
  6  2  4  0
  6  5  4  0
  7  9  1  0
  8  4  2  0
  8 15  4  0
 10 13  4  0
 10  2  4  0
 11 18  1  0
 12  1  4  0
 12 14  1  0
 13  8  4  0
 15 19  1  0
 16 15  4  0
 16  1  4  0
 17  3  1  0
 17 11  1  0
 18  9  1  0
 18  5  1  0
M  END
$$$$

     RDKit          3D

 19 21  0  0  0  0  0  0  0  0999 V2000
   -4.4400   -2.3290  -16.2590 C   0  0  0  0  0  0  0  0  0  0  0  0
   -5.6440   -1.5160  -18.2270 C   0  0  0  0  0  0  0  0  0  0  0  0
   -0.2180    0.8770  -19.8940 C   0  0  0  0  0  0  0  0  0  0  0  0
   -9.1840   -3.1440  -16.6110 O   0  0  0  0  0  0  0  0  0  0  0  0
   -3.3010   -1.1520  -18.0890 C   0  0  0  0  0  0  0  0  0  0  0  0
   -4.4310   -1.0910  -18.8020 C   0  0  0  0  0  0  0  0  0  0  0  0
   -0.0550    0.7890  -18.3730 C   0  0  0  0  0  0  0  0  0  0  0  0
   -8.0230   -2.6250  -17.0630 C   0  0  0  0  0  0  0  0  0  0  0  0
   -0.9400   -0.2410  -17.7100 C   0  0  0  0  0  0  0  0  0  0  0  0
   -6.9040   -1.3580  -18.8630 C   0  0  0  0  0  0  0  0  0  0  0  0
   -1.7910   -1.0780  -19.9430 C   0  0  0  0  0  0  0  0  0  0  0  0
   -3.3020   -1.8370  -16.8080 C   0  0  0  0  0  0  0  0  0  0  0  0
   -8.0610   -1.8600  -18.2740 C   0  0  0  0  0  0  0  0  0  0  0  0
   -1.8340   -2.1360  -16.0590 Cl  0  0  0  0  0  0  0  0  0  0  0  0
   -6.8030   -2.6980  -16.4410 C   0  0  0  0  0  0  0  0  0  0  0  0
   -5.6400   -2.1790  -16.9480 C   0  0  0  0  0  0  0  0  0  0  0  0
   -0.5470   -0.4610  -20.5260 C   0  0  0  0  0  0  0  0  0  0  0  0
   -2.0340   -0.7100  -18.5900 N   0  0  0  0  0  0  0  0  0  0  0  0
   -6.7600   -3.4000  -14.9140 Cl  0  0  0  0  0  0  0  0  0  0  0  0
  2 16  4  0
  3  7  1  0
  5 12  4  0
  6  2  4  0
  6  5  4  0
  7  9  1  0
  8  4  1  0
  8 15  4  0
 10 13  4  0
 10  2  4  0
 11 18  1  0
 12  1  4  0
 12 14  1  0
 13  8  4  0
 15 19  1  0
 16 15  4  0
 16  1  4  0
 17 11  1  0
 17  3  1  0
 18  5  1  0
 18  9  1  0
M  END
$$$$

     RDKit          3D

 19 21  0  0  0  0  0  0  0  0999 V2000
   -4.4290   -2.6930  -16.0980 C   0  0  0  0  0  0  0  0  0  0  0  0
   -5.5710   -1.6330  -18.0260 C   0  0  0  0  0  0  0  0  0  0  0  0
   -0.0630   -0.1120  -20.0500 C   0  0  0  0  0  0  0  0  0  0  0  0
   -9.2520   -2.4210  -16.3270 F   0  0  0  0  0  0  0  0  0  0  0  0
   -3.2100   -1.7320  -17.8700 N   0  0  0  0  0  0  0  0  0  0  0  0
   -4.4170   -1.3600  -18.5800 C   0  0  0  0  0  0  0  0  0  0  0  0
   -0.3310    0.3320  -18.8410 C   0  0  0  0  0  0  0  0  0  0  0  0
   -8.0520   -2.2610  -16.8330 C   0  0  0  0  0  0  0  0  0  0  0  0
   -1.2960   -0.2070  -17.8530 N   0  0  0  0  0  0  0  0  0  0  0  0
   -6.7770   -1.2050  -18.6190 C   0  0  0  0  0  0  0  0  0  0  0  0
   -1.4340   -2.1980  -19.4840 C   0  0  0  0  0  0  0  0  0  0  0  0
   -3.2050   -2.2640  -16.6430 C   0  0  0  0  0  0  0  0  0  0  0  0
   -7.9770   -1.6080  -18.0590 C   0  0  0  0  0  0  0  0  0  0  0  0
   -2.0800   -2.3280  -15.8770 O   0  0  0  0  0  0  0  0  0  0  0  0
   -6.8940   -2.6950  -16.1950 C   0  0  0  0  0  0  0  0  0  0  0  0
   -5.6530   -2.3390  -16.7670 C   0  0  0  0  0  0  0  0  0  0  0  0
   -0.5390   -1.4540  -20.3700 C   0  0  0  0  0  0  0  0  0  0  0  0
   -1.8630   -1.5060  -18.5040 C   0  0  0  0  0  0  0  0  0  0  0  0
   -6.9580   -3.4550  -14.8960 C   0  0  0  0  0  0  0  0  0  0  0  0
  2 16  4  0
  3  7  2  0
  5 12  1  0
  6  2  1  0
  6  5  1  0
  7  9  1  0
  8  4  1  0
  8 15  4  0
 10 13  4  0
 10  2  4  0
 12  1  1  0
 12 14  2  0
 13  8  4  0
 15 19  1  0
 16 15  4  0
 16  1  1  0
 17  3  1  0
 17 11  1  0
 18 11  1  0
 18  5  1  0
 18  9  1  0
M  END
$$$$

     RDKit          3D

 19 21  0  0  0  0  0  0  0  0999 V2000
   -4.3650   -2.5540  -16.1310 C   0  0  0  0  0  0  0  0  0  0  0  0
   -5.5350   -1.6580  -17.9680 C   0  0  0  0  0  0  0  0  0  0  0  0
   -0.0210    0.7440  -19.8570 N   0  0  0  0  0  0  0  0  0  0  0  0
   -9.2350   -2.6920  -16.6200 F   0  0  0  0  0  0  0  0  0  0  0  0
   -3.1260   -1.4740  -17.9180 C   0  0  0  0  0  0  0  0  0  0  0  0
   -4.3560   -1.2100  -18.5530 C   0  0  0  0  0  0  0  0  0  0  0  0
   -0.1970    0.7530  -18.4070 C   0  0  0  0  0  0  0  0  0  0  0  0
   -8.0530   -2.3180  -16.9660 C   0  0  0  0  0  0  0  0  0  0  0  0
   -0.5790   -0.7010  -17.8330 C   0  0  0  0  0  0  0  0  0  0  0  0
   -6.7520   -1.2830  -18.6460 C   0  0  0  0  0  0  0  0  0  0  0  0
   -1.6370   -1.4060  -19.8890 C   0  0  0  0  0  0  0  0  0  0  0  0
   -3.1590   -2.0890  -16.6510 C   0  0  0  0  0  0  0  0  0  0  0  0
   -7.9470   -1.6470  -18.1700 C   0  0  0  0  0  0  0  0  0  0  0  0
   -2.0640   -2.4240  -16.0420 O   0  0  0  0  0  0  0  0  0  0  0  0
   -6.8700   -2.6050  -16.2640 C   0  0  0  0  0  0  0  0  0  0  0  0
   -5.5950   -2.2780  -16.7530 C   0  0  0  0  0  0  0  0  0  0  0  0
   -0.6910   -0.4770  -20.5780 C   0  0  0  0  0  0  0  0  0  0  0  0
   -1.8780   -0.9860  -18.4960 N   0  0  0  0  0  0  0  0  0  0  0  0
   -7.0540   -3.2980  -14.9020 Cl  0  0  0  0  0  0  0  0  0  0  0  0
  2 16  4  0
  3  7  1  0
  5 12  4  0
  6  2  4  0
  6  5  4  0
  7  9  1  0
  8  4  1  0
  8 15  4  0
 10 13  4  0
 10  2  4  0
 11 18  1  0
 12  1  4  0
 12 14  1  0
 13  8  4  0
 15 19  1  0
 16 15  4  0
 16  1  4  0
 17 11  1  0
 17  3  1  0
 18  5  1  0
 18  9  1  0
M  END
$$$$

     RDKit          3D

 19 21  0  0  0  0  0  0  0  0999 V2000
   -4.2210   -2.4310  -16.1040 C   0  0  0  0  0  0  0  0  0  0  0  0
   -5.5080   -1.3830  -17.9980 C   0  0  0  0  0  0  0  0  0  0  0  0
    0.2130    0.4430  -20.1820 C   0  0  0  0  0  0  0  0  0  0  0  0
   -9.1450   -2.8520  -16.5700 O   0  0  0  0  0  0  0  0  0  0  0  0
   -3.0330   -1.2340  -17.9900 N   0  0  0  0  0  0  0  0  0  0  0  0
   -4.2890   -1.0420  -18.6560 C   0  0  0  0  0  0  0  0  0  0  0  0
   -0.2960    1.0690  -18.9750 C   0  0  0  0  0  0  0  0  0  0  0  0
   -7.9950   -2.3250  -16.9730 C   0  0  0  0  0  0  0  0  0  0  0  0
   -0.8740   -0.0490  -18.0710 C   0  0  0  0  0  0  0  0  0  0  0  0
   -6.7760   -1.1220  -18.6620 C   0  0  0  0  0  0  0  0  0  0  0  0
   -1.6030   -1.1880  -19.9840 C   0  0  0  0  0  0  0  0  0  0  0  0
   -2.9800   -1.8500  -16.7490 C   0  0  0  0  0  0  0  0  0  0  0  0
   -7.9670   -1.4750  -18.1310 C   0  0  0  0  0  0  0  0  0  0  0  0
   -1.8970   -1.9190  -16.1480 O   0  0  0  0  0  0  0  0  0  0  0  0
   -6.7910   -2.5620  -16.2270 C   0  0  0  0  0  0  0  0  0  0  0  0
   -5.4590   -2.1510  -16.7570 C   0  0  0  0  0  0  0  0  0  0  0  0
   -0.6610   -0.6020  -20.7360 C   0  0  0  0  0  0  0  0  0  0  0  0
   -1.9130   -0.7010  -18.6650 C   0  0  0  0  0  0  0  0  0  0  0  0
   -6.7860   -3.1850  -15.0560 F   0  0  0  0  0  0  0  0  0  0  0  0
  2 16  4  0
  3  7  1  0
  5 12  1  0
  6  2  1  0
  6  5  1  0
  7  9  1  0
  8  4  1  0
  8 15  4  0
 10 13  4  0
 10  2  4  0
 12 14  2  0
 12  1  1  0
 13  8  4  0
 15 19  1  0
 16 15  4  0
 16  1  1  0
 17  3  1  0
 17 11  2  0
 18 11  1  0
 18  9  1  0
 18  5  1  0
M  END
$$$$

     RDKit          3D

 19 21  0  0  0  0  0  0  0  0999 V2000
   -4.1760   -2.4270  -16.1970 C   0  0  0  0  0  0  0  0  0  0  0  0
   -5.3290   -1.6090  -18.1890 C   0  0  0  0  0  0  0  0  0  0  0  0
   -0.4510    0.4830  -20.0460 O   0  0  0  0  0  0  0  0  0  0  0  0
   -9.0690   -2.9110  -16.8660 F   0  0  0  0  0  0  0  0  0  0  0  0
   -2.8470   -1.4820  -18.0820 C   0  0  0  0  0  0  0  0  0  0  0  0
   -4.0390   -1.2880  -18.7660 C   0  0  0  0  0  0  0  0  0  0  0  0
    0.1730    0.3540  -18.7360 C   0  0  0  0  0  0  0  0  0  0  0  0
   -7.8410   -2.4190  -17.1670 C   0  0  0  0  0  0  0  0  0  0  0  0
   -0.4030   -0.8220  -18.2200 C   0  0  0  0  0  0  0  0  0  0  0  0
   -6.5010   -1.3380  -18.8980 C   0  0  0  0  0  0  0  0  0  0  0  0
   -1.2450   -1.8350  -19.9420 C   0  0  0  0  0  0  0  0  0  0  0  0
   -2.8920   -1.9950  -16.7460 C   0  0  0  0  0  0  0  0  0  0  0  0
   -7.7470   -1.7170  -18.3930 C   0  0  0  0  0  0  0  0  0  0  0  0
   -1.7120   -2.1580  -15.9560 O   0  0  0  0  0  0  0  0  0  0  0  0
   -6.6900   -2.6160  -16.4280 C   0  0  0  0  0  0  0  0  0  0  0  0
   -5.3650   -2.2110  -16.9230 C   0  0  0  0  0  0  0  0  0  0  0  0
   -0.5340   -0.8040  -20.7820 C   0  0  0  0  0  0  0  0  0  0  0  0
   -1.5990   -1.2000  -18.6180 N   0  0  0  0  0  0  0  0  0  0  0  0
   -6.7800   -3.4170  -14.8630 Cl  0  0  0  0  0  0  0  0  0  0  0  0
  2 16  4  0
  3  7  1  0
  5 12  4  0
  6  2  4  0
  6  5  4  0
  7  9  1  0
  8  4  1  0
  8 15  4  0
 10 13  4  0
 10  2  4  0
 11 18  1  0
 12  1  4  0
 12 14  1  0
 13  8  4  0
 15 19  1  0
 16 15  4  0
 16  1  4  0
 17  3  1  0
 17 11  1  0
 18  9  1  0
 18  5  1  0
M  END
$$$$

     RDKit          3D

 19 21  0  0  0  0  0  0  0  0999 V2000
   -4.3210   -2.7270  -16.3170 C   0  0  0  0  0  0  0  0  0  0  0  0
   -5.5550   -1.6450  -18.1810 C   0  0  0  0  0  0  0  0  0  0  0  0
   -0.1120    0.2860  -20.2800 O   0  0  0  0  0  0  0  0  0  0  0  0
   -9.3150   -2.6970  -16.5810 O   0  0  0  0  0  0  0  0  0  0  0  0
   -3.0280   -1.6550  -18.1090 C   0  0  0  0  0  0  0  0  0  0  0  0
   -4.2410   -1.2640  -18.7510 C   0  0  0  0  0  0  0  0  0  0  0  0
   -0.2970    0.6580  -18.7870 C   0  0  0  0  0  0  0  0  0  0  0  0
   -8.0660   -2.3170  -17.0390 C   0  0  0  0  0  0  0  0  0  0  0  0
   -0.4910   -0.7590  -17.9760 C   0  0  0  0  0  0  0  0  0  0  0  0
   -6.7410   -1.2670  -18.8760 C   0  0  0  0  0  0  0  0  0  0  0  0
   -1.3520   -1.9150  -19.8450 C   0  0  0  0  0  0  0  0  0  0  0  0
   -3.1480   -2.3890  -16.9060 C   0  0  0  0  0  0  0  0  0  0  0  0
   -7.9480   -1.6700  -18.3490 C   0  0  0  0  0  0  0  0  0  0  0  0
   -1.9550   -2.8780  -16.3930 F   0  0  0  0  0  0  0  0  0  0  0  0
   -6.8590   -2.5830  -16.3500 C   0  0  0  0  0  0  0  0  0  0  0  0
   -5.5710   -2.3250  -16.9720 C   0  0  0  0  0  0  0  0  0  0  0  0
   -0.6880   -0.8350  -20.8140 C   0  0  0  0  0  0  0  0  0  0  0  0
   -1.7180   -1.3860  -18.5740 N   0  0  0  0  0  0  0  0  0  0  0  0
   -6.8600   -3.1050  -15.1530 O   0  0  0  0  0  0  0  0  0  0  0  0
  2 16  4  0
  3  7  1  0
  5 12  4  0
  6  2  4  0
  6  5  4  0
  7  9  1  0
  8  4  1  0
  8 15  4  0
 10 13  4  0
 10  2  4  0
 11 18  1  0
 12 14  1  0
 12  1  4  0
 13  8  4  0
 15 19  1  0
 16 15  4  0
 16  1  4  0
 17  3  1  0
 17 11  1  0
 18  5  1  0
 18  9  1  0
M  END
$$$$

     RDKit          3D

 19 21  0  0  0  0  0  0  0  0999 V2000
   -4.3820   -2.6440  -16.2360 C   0  0  0  0  0  0  0  0  0  0  0  0
   -5.7680   -1.4010  -17.9140 C   0  0  0  0  0  0  0  0  0  0  0  0
    0.4150   -0.0400  -19.9100 O   0  0  0  0  0  0  0  0  0  0  0  0
   -9.3880   -2.8770  -16.5760 O   0  0  0  0  0  0  0  0  0  0  0  0
   -3.1040   -1.3790  -17.9140 C   0  0  0  0  0  0  0  0  0  0  0  0
   -4.3670   -1.0430  -18.5440 C   0  0  0  0  0  0  0  0  0  0  0  0
    0.4340    0.0540  -18.4880 C   0  0  0  0  0  0  0  0  0  0  0  0
   -8.1390   -2.3480  -17.0030 C   0  0  0  0  0  0  0  0  0  0  0  0
   -0.9940    0.0650  -17.8760 C   0  0  0  0  0  0  0  0  0  0  0  0
   -6.9300   -1.1220  -18.6580 C   0  0  0  0  0  0  0  0  0  0  0  0
   -1.7100   -1.1460  -19.9260 C   0  0  0  0  0  0  0  0  0  0  0  0
   -3.1730   -2.2020  -16.7340 C   0  0  0  0  0  0  0  0  0  0  0  0
   -8.0150   -1.6220  -18.1940 C   0  0  0  0  0  0  0  0  0  0  0  0
   -1.7970   -2.6440  -15.8780 Cl  0  0  0  0  0  0  0  0  0  0  0  0
   -6.9740   -2.6260  -16.3490 N   0  0  0  0  0  0  0  0  0  0  0  0
   -5.6020   -2.1820  -16.8120 C   0  0  0  0  0  0  0  0  0  0  0  0
   -0.2630   -1.1180  -20.3950 C   0  0  0  0  0  0  0  0  0  0  0  0
   -1.8310   -0.9410  -18.4700 N   0  0  0  0  0  0  0  0  0  0  0  0
   -7.1240   -3.3900  -15.0370 C   0  0  0  0  0  0  0  0  0  0  0  0
  2 16  4  0
  3  7  1  0
  5 12  4  0
  6  2  4  0
  6  5  4  0
  7  9  1  0
  8  4  2  0
  8 15  4  0
 10 13  4  0
 10  2  4  0
 11 18  1  0
 12  1  4  0
 12 14  1  0
 13  8  4  0
 15 19  1  0
 16 15  4  0
 16  1  4  0
 17 11  1  0
 17  3  1  0
 18  5  1  0
 18  9  1  0
M  END
$$$$

     RDKit          3D

 19 21  0  0  0  0  0  0  0  0999 V2000
   -4.4730   -2.4440  -16.2720 C   0  0  0  0  0  0  0  0  0  0  0  0
   -5.7290   -1.4910  -18.1150 C   0  0  0  0  0  0  0  0  0  0  0  0
   -0.0650    0.4900  -20.1290 N   0  0  0  0  0  0  0  0  0  0  0  0
   -9.3040   -2.5680  -16.4690 F   0  0  0  0  0  0  0  0  0  0  0  0
   -3.2530   -1.2670  -18.0730 C   0  0  0  0  0  0  0  0  0  0  0  0
   -4.5030   -0.9800  -18.6250 C   0  0  0  0  0  0  0  0  0  0  0  0
   -0.1370    0.4780  -18.7040 C   0  0  0  0  0  0  0  0  0  0  0  0
   -8.1500   -2.2530  -16.9680 C   0  0  0  0  0  0  0  0  0  0  0  0
   -1.5570    0.4490  -18.3230 C   0  0  0  0  0  0  0  0  0  0  0  0
   -6.9580   -1.2610  -18.7300 C   0  0  0  0  0  0  0  0  0  0  0  0
   -1.6340   -1.4640  -19.8100 C   0  0  0  0  0  0  0  0  0  0  0  0
   -3.2660   -1.9530  -16.8260 C   0  0  0  0  0  0  0  0  0  0  0  0
   -8.1510   -1.6570  -18.2030 C   0  0  0  0  0  0  0  0  0  0  0  0
   -2.0930   -2.1430  -16.0960 C   0  0  0  0  0  0  0  0  0  0  0  0
   -6.9550   -2.5720  -16.2850 C   0  0  0  0  0  0  0  0  0  0  0  0
   -5.7190   -2.2050  -16.8890 C   0  0  0  0  0  0  0  0  0  0  0  0
   -0.6150   -0.7540  -20.5690 C   0  0  0  0  0  0  0  0  0  0  0  0
   -2.1040   -0.8230  -18.5600 N   0  0  0  0  0  0  0  0  0  0  0  0
   -6.9520   -3.2420  -15.1390 F   0  0  0  0  0  0  0  0  0  0  0  0
  2 16  4  0
  3  7  1  0
  5 12  4  0
  6  2  4  0
  6  5  4  0
  7  9  1  0
  8  4  1  0
  8 15  4  0
 10 13  4  0
 10  2  4  0
 11 18  1  0
 12  1  4  0
 12 14  1  0
 13  8  4  0
 15 19  1  0
 16 15  4  0
 16  1  4  0
 17  3  1  0
 17 11  2  0
 18  9  1  0
 18  5  1  0
M  END
$$$$

     RDKit          3D

 19 21  0  0  0  0  0  0  0  0999 V2000
   -4.1850   -2.4030  -16.1950 C   0  0  0  0  0  0  0  0  0  0  0  0
   -5.3900   -1.6270  -18.1320 C   0  0  0  0  0  0  0  0  0  0  0  0
   -0.4090    0.7520  -20.0460 O   0  0  0  0  0  0  0  0  0  0  0  0
   -9.0260   -2.8780  -16.5210 O   0  0  0  0  0  0  0  0  0  0  0  0
   -2.9480   -1.4820  -18.0250 C   0  0  0  0  0  0  0  0  0  0  0  0
   -4.1880   -1.2980  -18.7870 C   0  0  0  0  0  0  0  0  0  0  0  0
   -0.3160    0.7980  -18.6600 C   0  0  0  0  0  0  0  0  0  0  0  0
   -7.8240   -2.4420  -16.9870 C   0  0  0  0  0  0  0  0  0  0  0  0
   -0.5160   -0.5170  -18.0190 C   0  0  0  0  0  0  0  0  0  0  0  0
   -6.6410   -1.4160  -18.7510 C   0  0  0  0  0  0  0  0  0  0  0  0
   -1.6530   -1.2770  -20.0470 C   0  0  0  0  0  0  0  0  0  0  0  0
   -3.0160   -2.0600  -16.8180 C   0  0  0  0  0  0  0  0  0  0  0  0
   -7.8530   -1.8030  -18.2370 C   0  0  0  0  0  0  0  0  0  0  0  0
   -1.8750   -2.2330  -16.0550 O   0  0  0  0  0  0  0  0  0  0  0  0
   -6.6490   -2.5850  -16.3230 C   0  0  0  0  0  0  0  0  0  0  0  0
   -5.3840   -2.2160  -16.8540 C   0  0  0  0  0  0  0  0  0  0  0  0
   -0.4790   -0.5210  -20.5710 C   0  0  0  0  0  0  0  0  0  0  0  0
   -1.8050   -0.9760  -18.6170 N   0  0  0  0  0  0  0  0  0  0  0  0
   -6.8540   -3.2930  -14.8060 Cl  0  0  0  0  0  0  0  0  0  0  0  0
  2 16  4  0
  3  7  1  0
  5 12  4  0
  6  2  4  0
  6  5  4  0
  7  9  1  0
  8  4  1  0
  8 15  4  0
 10 13  4  0
 10  2  4  0
 11 18  1  0
 12  1  4  0
 12 14  1  0
 13  8  4  0
 15 19  1  0
 16 15  4  0
 16  1  4  0
 17 11  1  0
 17  3  1  0
 18  5  1  0
 18  9  1  0
M  END
$$$$

     RDKit          3D

 19 21  0  0  0  0  0  0  0  0999 V2000
   -4.2430   -2.6040  -16.1740 C   0  0  0  0  0  0  0  0  0  0  0  0
   -5.5010   -1.6280  -18.0230 C   0  0  0  0  0  0  0  0  0  0  0  0
   -0.0280    0.2150  -20.0730 N   0  0  0  0  0  0  0  0  0  0  0  0
   -9.1500   -2.8010  -16.3200 O   0  0  0  0  0  0  0  0  0  0  0  0
   -3.0530   -1.5760  -17.9560 N   0  0  0  0  0  0  0  0  0  0  0  0
   -4.2160   -1.3190  -18.6050 C   0  0  0  0  0  0  0  0  0  0  0  0
   -0.1710    0.6110  -18.8240 C   0  0  0  0  0  0  0  0  0  0  0  0
   -7.9930   -2.4110  -16.7920 C   0  0  0  0  0  0  0  0  0  0  0  0
   -1.0740   -0.0210  -18.0470 C   0  0  0  0  0  0  0  0  0  0  0  0
   -6.7620   -1.2970  -18.6230 C   0  0  0  0  0  0  0  0  0  0  0  0
   -1.3090   -1.8340  -19.5950 C   0  0  0  0  0  0  0  0  0  0  0  0
   -3.0870   -2.1830  -16.7580 C   0  0  0  0  0  0  0  0  0  0  0  0
   -7.9340   -1.7390  -18.0690 C   0  0  0  0  0  0  0  0  0  0  0  0
   -1.9310   -2.2160  -16.0750 O   0  0  0  0  0  0  0  0  0  0  0  0
   -6.7730   -2.6320  -16.1160 C   0  0  0  0  0  0  0  0  0  0  0  0
   -5.4950   -2.2790  -16.7560 C   0  0  0  0  0  0  0  0  0  0  0  0
   -0.3400   -1.0620  -20.4060 C   0  0  0  0  0  0  0  0  0  0  0  0
   -1.7920   -1.2250  -18.5040 C   0  0  0  0  0  0  0  0  0  0  0  0
   -6.7740   -3.2430  -14.9290 F   0  0  0  0  0  0  0  0  0  0  0  0
  2 16  4  0
  3  7  4  0
  5 12  1  0
  6  2  1  0
  6  5  1  0
  7  9  4  0
  8  4  1  0
  8 15  4  0
 10 13  4  0
 10  2  4  0
 11 18  4  0
 12  1  1  0
 12 14  2  0
 13  8  4  0
 15 19  1  0
 16  1  1  0
 16 15  4  0
 17  3  4  0
 17 11  4  0
 18  9  4  0
 18  5  1  0
M  END
$$$$

     RDKit          3D

 19 21  0  0  0  0  0  0  0  0999 V2000
   -4.3820   -2.5350  -16.0420 C   0  0  0  0  0  0  0  0  0  0  0  0
   -5.5000   -1.6670  -18.0730 C   0  0  0  0  0  0  0  0  0  0  0  0
    0.2700    0.0950  -19.6250 O   0  0  0  0  0  0  0  0  0  0  0  0
   -9.1430   -2.9240  -16.5250 O   0  0  0  0  0  0  0  0  0  0  0  0
   -3.0790   -1.5740  -17.9100 C   0  0  0  0  0  0  0  0  0  0  0  0
   -4.2750   -1.3370  -18.6070 C   0  0  0  0  0  0  0  0  0  0  0  0
   -0.2960    0.5460  -18.4520 C   0  0  0  0  0  0  0  0  0  0  0  0
   -8.0220   -2.5020  -16.9860 C   0  0  0  0  0  0  0  0  0  0  0  0
   -0.9710   -0.5460  -17.7750 C   0  0  0  0  0  0  0  0  0  0  0  0
   -6.6940   -1.4150  -18.7840 C   0  0  0  0  0  0  0  0  0  0  0  0
   -1.6710   -1.3940  -19.8580 C   0  0  0  0  0  0  0  0  0  0  0  0
   -3.1780   -2.0870  -16.6860 C   0  0  0  0  0  0  0  0  0  0  0  0
   -7.9210   -1.8380  -18.2130 C   0  0  0  0  0  0  0  0  0  0  0  0
   -2.0470   -2.3240  -15.9960 F   0  0  0  0  0  0  0  0  0  0  0  0
   -6.8410   -2.6610  -16.3060 C   0  0  0  0  0  0  0  0  0  0  0  0
   -5.5730   -2.2690  -16.7990 C   0  0  0  0  0  0  0  0  0  0  0  0
   -0.7530   -0.4820  -20.5060 C   0  0  0  0  0  0  0  0  0  0  0  0
   -1.8600   -1.3410  -18.4710 N   0  0  0  0  0  0  0  0  0  0  0  0
   -6.8900   -3.1220  -15.0600 F   0  0  0  0  0  0  0  0  0  0  0  0
  2 16  4  0
  3  7  1  0
  5 12  4  0
  6  2  4  0
  6  5  4  0
  7  9  1  0
  8  4  1  0
  8 15  4  0
 10 13  4  0
 10  2  4  0
 11 18  1  0
 12  1  4  0
 12 14  1  0
 13  8  4  0
 15 19  1  0
 16 15  4  0
 16  1  4  0
 17 11  1  0
 17  3  1  0
 18  5  1  0
 18  9  1  0
M  END
$$$$

     RDKit          3D

 19 21  0  0  0  0  0  0  0  0999 V2000
   -4.1530   -2.4210  -16.2190 C   0  0  0  0  0  0  0  0  0  0  0  0
   -5.4670   -1.5800  -18.1410 C   0  0  0  0  0  0  0  0  0  0  0  0
    0.1640    0.7080  -20.0300 C   0  0  0  0  0  0  0  0  0  0  0  0
   -9.1070   -2.7230  -16.3550 O   0  0  0  0  0  0  0  0  0  0  0  0
   -2.9550   -1.6300  -18.1680 N   0  0  0  0  0  0  0  0  0  0  0  0
   -4.1980   -1.1660  -18.8180 C   0  0  0  0  0  0  0  0  0  0  0  0
   -0.0300    0.9310  -18.5270 C   0  0  0  0  0  0  0  0  0  0  0  0
   -7.9440   -2.3250  -16.9550 C   0  0  0  0  0  0  0  0  0  0  0  0
   -0.9440   -0.0400  -17.7600 C   0  0  0  0  0  0  0  0  0  0  0  0
   -6.6680   -1.1770  -18.7270 C   0  0  0  0  0  0  0  0  0  0  0  0
   -1.2880   -1.3300  -19.9970 C   0  0  0  0  0  0  0  0  0  0  0  0
   -2.9700   -1.8970  -16.7800 C   0  0  0  0  0  0  0  0  0  0  0  0
   -7.8700   -1.5890  -18.1390 C   0  0  0  0  0  0  0  0  0  0  0  0
   -1.9710   -1.7710  -16.1060 O   0  0  0  0  0  0  0  0  0  0  0  0
   -6.7080   -2.5620  -16.2780 C   0  0  0  0  0  0  0  0  0  0  0  0
   -5.4500   -2.1980  -16.8750 C   0  0  0  0  0  0  0  0  0  0  0  0
   -0.4170   -0.4340  -20.7250 C   0  0  0  0  0  0  0  0  0  0  0  0
   -1.9920   -0.6550  -18.7700 C   0  0  0  0  0  0  0  0  0  0  0  0
   -6.7360   -3.1680  -15.1080 O   0  0  0  0  0  0  0  0  0  0  0  0
  2 16  4  0
  3  7  1  0
  5 12  1  0
  6  5  1  0
  6  2  1  0
  7  9  1  0
  8  4  1  0
  8 15  4  0
 10  2  4  0
 10 13  4  0
 12  1  1  0
 12 14  2  0
 13  8  4  0
 15 19  1  0
 16 15  4  0
 16  1  1  0
 17  3  2  0
 17 11  1  0
 18 11  1  0
 18  5  1  0
 18  9  1  0
M  END
$$$$

     RDKit          3D

 19 21  0  0  0  0  0  0  0  0999 V2000
   -4.2690   -2.2540  -15.9960 C   0  0  0  0  0  0  0  0  0  0  0  0
   -5.3920   -1.6400  -18.1840 C   0  0  0  0  0  0  0  0  0  0  0  0
   -0.6340    0.6960  -19.6500 O   0  0  0  0  0  0  0  0  0  0  0  0
   -8.9610   -2.4850  -16.4690 O   0  0  0  0  0  0  0  0  0  0  0  0
   -2.8670   -1.8240  -18.1360 C   0  0  0  0  0  0  0  0  0  0  0  0
   -4.0860   -1.2360  -18.7520 C   0  0  0  0  0  0  0  0  0  0  0  0
   -0.0120    0.2950  -18.4520 C   0  0  0  0  0  0  0  0  0  0  0  0
   -7.8370   -2.2280  -16.9780 C   0  0  0  0  0  0  0  0  0  0  0  0
   -0.3650   -1.2430  -18.1400 C   0  0  0  0  0  0  0  0  0  0  0  0
   -6.5340   -1.2660  -18.7940 C   0  0  0  0  0  0  0  0  0  0  0  0
   -1.4650   -1.5370  -20.1190 C   0  0  0  0  0  0  0  0  0  0  0  0
   -2.9480   -1.6630  -16.5960 C   0  0  0  0  0  0  0  0  0  0  0  0
   -7.7930   -1.5060  -18.2260 C   0  0  0  0  0  0  0  0  0  0  0  0
   -1.8620   -2.3540  -15.9430 O   0  0  0  0  0  0  0  0  0  0  0  0
   -6.6600   -2.6350  -16.4150 N   0  0  0  0  0  0  0  0  0  0  0  0
   -5.4130   -2.4180  -16.9820 C   0  0  0  0  0  0  0  0  0  0  0  0
   -0.6500   -0.3300  -20.6520 C   0  0  0  0  0  0  0  0  0  0  0  0
   -1.6340   -1.2620  -18.7440 N   0  0  0  0  0  0  0  0  0  0  0  0
   -6.8480   -3.3790  -15.1240 C   0  0  0  0  0  0  0  0  0  0  0  0
  2 16  1  0
  3  7  1  0
  5  6  1  0
  5 12  1  0
  6  2  1  0
  7  9  1  0
  8  4  2  0
  8 15  1  0
 10 13  1  0
 10  2  2  0
 11 18  1  0
 12  1  1  0
 12 14  1  0
 13  8  1  0
 15 19  1  0
 16 15  1  0
 16  1  1  0
 17 11  1  0
 17  3  1  0
 18  9  1  0
 18  5  1  0
M  END
$$$$

     RDKit          3D

 19 21  0  0  0  0  0  0  0  0999 V2000
   -4.3850   -2.5290  -16.2660 C   0  0  0  0  0  0  0  0  0  0  0  0
   -5.5110   -1.5330  -18.2730 C   0  0  0  0  0  0  0  0  0  0  0  0
   -0.1940    0.4150  -20.1310 O   0  0  0  0  0  0  0  0  0  0  0  0
   -9.2790   -2.6060  -16.8660 N   0  0  0  0  0  0  0  0  0  0  0  0
   -3.0570   -1.6200  -18.0830 C   0  0  0  0  0  0  0  0  0  0  0  0
   -4.2580   -1.2350  -18.8010 C   0  0  0  0  0  0  0  0  0  0  0  0
   -0.1600    0.4670  -18.6960 C   0  0  0  0  0  0  0  0  0  0  0  0
   -8.0380   -2.2280  -17.2960 C   0  0  0  0  0  0  0  0  0  0  0  0
   -0.5190   -0.8880  -18.0600 C   0  0  0  0  0  0  0  0  0  0  0  0
   -6.6860   -1.3030  -18.9970 C   0  0  0  0  0  0  0  0  0  0  0  0
   -1.4610   -1.7550  -20.0000 C   0  0  0  0  0  0  0  0  0  0  0  0
   -3.1550   -2.2870  -16.8710 C   0  0  0  0  0  0  0  0  0  0  0  0
   -7.9030   -1.6970  -18.4720 N   0  0  0  0  0  0  0  0  0  0  0  0
   -2.0400   -2.6570  -16.2800 F   0  0  0  0  0  0  0  0  0  0  0  0
   -6.9390   -2.5640  -16.4730 C   0  0  0  0  0  0  0  0  0  0  0  0
   -5.5800   -2.2100  -16.9680 C   0  0  0  0  0  0  0  0  0  0  0  0
   -0.3080   -0.9470  -20.6510 C   0  0  0  0  0  0  0  0  0  0  0  0
   -1.7620   -1.2990  -18.5910 N   0  0  0  0  0  0  0  0  0  0  0  0
   -7.0960   -3.3040  -15.0070 Cl  0  0  0  0  0  0  0  0  0  0  0  0
  2 16  4  0
  3  7  1  0
  5 12  4  0
  6  2  4  0
  6  5  4  0
  7  9  1  0
  8  4  1  0
  8 15  4  0
 10 13  4  0
 10  2  4  0
 11 18  1  0
 12 14  1  0
 12  1  4  0
 13  8  4  0
 15 19  1  0
 16 15  4  0
 16  1  4  0
 17  3  1  0
 17 11  1  0
 18  5  1  0
 18  9  1  0
M  END
$$$$

     RDKit          3D

 19 21  0  0  0  0  0  0  0  0999 V2000
   -4.3380   -2.5150  -16.2810 C   0  0  0  0  0  0  0  0  0  0  0  0
   -5.5870   -1.4100  -18.0450 C   0  0  0  0  0  0  0  0  0  0  0  0
    0.0910   -0.0260  -20.3000 O   0  0  0  0  0  0  0  0  0  0  0  0
   -9.3250   -2.7930  -16.7110 O   0  0  0  0  0  0  0  0  0  0  0  0
   -3.1940   -1.2990  -18.1230 C   0  0  0  0  0  0  0  0  0  0  0  0
   -4.4160   -1.0070  -18.6270 C   0  0  0  0  0  0  0  0  0  0  0  0
    0.0870    0.3880  -18.9140 C   0  0  0  0  0  0  0  0  0  0  0  0
   -8.0520   -2.2970  -17.0780 C   0  0  0  0  0  0  0  0  0  0  0  0
   -1.1980    0.1700  -18.2190 C   0  0  0  0  0  0  0  0  0  0  0  0
   -6.8090   -1.0440  -18.5940 N   0  0  0  0  0  0  0  0  0  0  0  0
   -1.6760   -1.6280  -19.9070 C   0  0  0  0  0  0  0  0  0  0  0  0
   -3.2030   -2.0320  -16.8380 C   0  0  0  0  0  0  0  0  0  0  0  0
   -7.9750   -1.4580  -18.1990 C   0  0  0  0  0  0  0  0  0  0  0  0
   -2.0580   -2.2480  -16.3540 F   0  0  0  0  0  0  0  0  0  0  0  0
   -6.8520   -2.6520  -16.4220 C   0  0  0  0  0  0  0  0  0  0  0  0
   -5.5710   -2.2290  -16.8470 C   0  0  0  0  0  0  0  0  0  0  0  0
   -0.2980   -1.3810  -20.4110 C   0  0  0  0  0  0  0  0  0  0  0  0
   -2.0630   -0.9010  -18.7230 N   0  0  0  0  0  0  0  0  0  0  0  0
   -7.0070   -3.6680  -14.9670 Cl  0  0  0  0  0  0  0  0  0  0  0  0
  2 16  4  0
  3  7  1  0
  5 12  4  0
  6  5  4  0
  6  2  4  0
  7  9  1  0
  8  4  1  0
  8 15  4  0
 10 13  4  0
 10  2  4  0
 11 18  1  0
 12 14  1  0
 12  1  4  0
 13  8  4  0
 15 19  1  0
 16 15  4  0
 16  1  4  0
 17  3  1  0
 17 11  1  0
 18  9  1  0
 18  5  1  0
M  END
$$$$

     RDKit          3D

 19 21  0  0  0  0  0  0  0  0999 V2000
   -4.4350   -2.6020  -16.2920 C   0  0  0  0  0  0  0  0  0  0  0  0
   -5.6680   -1.4770  -18.0490 C   0  0  0  0  0  0  0  0  0  0  0  0
   -0.0910    0.2370  -20.1410 O   0  0  0  0  0  0  0  0  0  0  0  0
   -9.1750   -2.5570  -16.3610 F   0  0  0  0  0  0  0  0  0  0  0  0
   -3.2990   -1.2090  -17.9420 C   0  0  0  0  0  0  0  0  0  0  0  0
   -4.5270   -1.0290  -18.5360 C   0  0  0  0  0  0  0  0  0  0  0  0
   -0.1340    0.5090  -18.7150 C   0  0  0  0  0  0  0  0  0  0  0  0
   -8.0300   -2.2630  -16.9210 C   0  0  0  0  0  0  0  0  0  0  0  0
   -1.6100    0.5520  -18.2250 C   0  0  0  0  0  0  0  0  0  0  0  0
   -6.8270   -1.1470  -18.6530 C   0  0  0  0  0  0  0  0  0  0  0  0
   -1.9450   -1.2990  -19.8880 C   0  0  0  0  0  0  0  0  0  0  0  0
   -3.3070   -2.0320  -16.8810 C   0  0  0  0  0  0  0  0  0  0  0  0
   -8.0100   -1.4960  -18.0690 C   0  0  0  0  0  0  0  0  0  0  0  0
   -2.1480   -2.2950  -16.2860 O   0  0  0  0  0  0  0  0  0  0  0  0
   -6.8100   -2.6450  -16.3460 C   0  0  0  0  0  0  0  0  0  0  0  0
   -5.6150   -2.2910  -16.8970 C   0  0  0  0  0  0  0  0  0  0  0  0
   -0.5880   -1.0660  -20.3400 C   0  0  0  0  0  0  0  0  0  0  0  0
   -2.1780   -0.7740  -18.5270 N   0  0  0  0  0  0  0  0  0  0  0  0
   -6.8140   -3.4710  -15.0710 C   0  0  0  0  0  0  0  0  0  0  0  0
  2 16  4  0
  3  7  1  0
  5 12  4  0
  6  2  4  0
  6  5  4  0
  7  9  1  0
  8  4  1  0
  8 15  4  0
 10 13  4  0
 10  2  4  0
 11 18  1  0
 12  1  4  0
 12 14  1  0
 13  8  4  0
 15 19  1  0
 16 15  4  0
 16  1  4  0
 17  3  1  0
 17 11  1  0
 18  9  1  0
 18  5  1  0
M  END
$$$$

     RDKit          3D

 19 21  0  0  0  0  0  0  0  0999 V2000
   -4.3000   -2.4940  -16.1720 C   0  0  0  0  0  0  0  0  0  0  0  0
   -5.4520   -1.5730  -18.1360 C   0  0  0  0  0  0  0  0  0  0  0  0
   -0.1800    0.7000  -19.9360 O   0  0  0  0  0  0  0  0  0  0  0  0
   -9.0570   -2.6630  -16.4330 O   0  0  0  0  0  0  0  0  0  0  0  0
   -2.9780   -1.5430  -17.9380 C   0  0  0  0  0  0  0  0  0  0  0  0
   -4.1670   -1.2180  -18.6340 C   0  0  0  0  0  0  0  0  0  0  0  0
   -0.4820    0.9010  -18.5580 C   0  0  0  0  0  0  0  0  0  0  0  0
   -7.9110   -2.2770  -17.0910 C   0  0  0  0  0  0  0  0  0  0  0  0
   -0.8320   -0.3120  -17.7490 C   0  0  0  0  0  0  0  0  0  0  0  0
   -6.6780   -1.3090  -18.8610 C   0  0  0  0  0  0  0  0  0  0  0  0
   -1.7380   -0.9960  -19.9850 C   0  0  0  0  0  0  0  0  0  0  0  0
   -3.0660   -2.1590  -16.7740 C   0  0  0  0  0  0  0  0  0  0  0  0
   -7.8440   -1.6580  -18.2820 C   0  0  0  0  0  0  0  0  0  0  0  0
   -1.9390   -2.4460  -16.0880 O   0  0  0  0  0  0  0  0  0  0  0  0
   -6.7570   -2.6520  -16.3990 C   0  0  0  0  0  0  0  0  0  0  0  0
   -5.4930   -2.2590  -16.8880 C   0  0  0  0  0  0  0  0  0  0  0  0
   -0.3850   -0.6390  -20.4170 C   0  0  0  0  0  0  0  0  0  0  0  0
   -1.7380   -1.2190  -18.5070 N   0  0  0  0  0  0  0  0  0  0  0  0
   -6.8160   -3.5130  -14.8530 Cl  0  0  0  0  0  0  0  0  0  0  0  0
  2 16  4  0
  3  7  1  0
  5 12  4  0
  6  2  4  0
  6  5  4  0
  7  9  1  0
  8  4  1  0
  8 15  4  0
 10 13  4  0
 10  2  4  0
 11 18  1  0
 12  1  4  0
 12 14  1  0
 13  8  4  0
 15 19  1  0
 16 15  4  0
 16  1  4  0
 17 11  1  0
 17  3  1  0
 18  5  1  0
 18  9  1  0
M  END
$$$$

     RDKit          3D

 19 21  0  0  0  0  0  0  0  0999 V2000
   -4.4650   -2.4990  -15.9220 C   0  0  0  0  0  0  0  0  0  0  0  0
   -5.5140   -1.6790  -17.9460 C   0  0  0  0  0  0  0  0  0  0  0  0
   -0.2860    0.0110  -20.3210 N   0  0  0  0  0  0  0  0  0  0  0  0
   -9.2800   -2.5570  -16.5990 N   0  0  0  0  0  0  0  0  0  0  0  0
   -3.0870   -1.5350  -17.7740 C   0  0  0  0  0  0  0  0  0  0  0  0
   -4.2810   -1.4430  -18.4420 C   0  0  0  0  0  0  0  0  0  0  0  0
    0.2240    0.2230  -18.9030 C   0  0  0  0  0  0  0  0  0  0  0  0
   -8.1120   -2.2200  -17.0610 C   0  0  0  0  0  0  0  0  0  0  0  0
   -0.9790    0.0010  -17.9750 C   0  0  0  0  0  0  0  0  0  0  0  0
   -6.5680   -1.3660  -18.7460 C   0  0  0  0  0  0  0  0  0  0  0  0
   -1.3310   -2.0190  -19.4410 C   0  0  0  0  0  0  0  0  0  0  0  0
   -3.2220   -1.9980  -16.4570 C   0  0  0  0  0  0  0  0  0  0  0  0
   -7.8770   -1.5820  -18.2590 C   0  0  0  0  0  0  0  0  0  0  0  0
   -1.9370   -2.1200  -15.6950 C   0  0  0  0  0  0  0  0  0  0  0  0
   -6.9460   -2.6730  -16.2310 N   0  0  0  0  0  0  0  0  0  0  0  0
   -5.6260   -2.3400  -16.6520 C   0  0  0  0  0  0  0  0  0  0  0  0
   -0.3980   -1.4920  -20.4740 C   0  0  0  0  0  0  0  0  0  0  0  0
   -1.7970   -1.1460  -18.3510 N   0  0  0  0  0  0  0  0  0  0  0  0
   -7.1920   -3.4220  -15.0390 N   0  0  0  0  0  0  0  0  0  0  0  0
  2 16  1  0
  3  7  1  0
  5 12  2  0
  6  2  1  0
  6  5  1  0
  7  9  1  0
  8  4  1  0
  8 15  1  0
 10 13  1  0
 10  2  2  0
 11 18  1  0
 12  1  1  0
 12 14  1  0
 13  8  2  0
 15 19  1  0
 16 15  1  0
 16  1  2  0
 17  3  1  0
 17 11  1  0
 18  9  1  0
 18  5  1  0
M  END
$$$$

     RDKit          3D

 19 21  0  0  0  0  0  0  0  0999 V2000
   -4.4510   -2.2770  -16.1030 C   0  0  0  0  0  0  0  0  0  0  0  0
   -5.5320   -1.5360  -18.1940 C   0  0  0  0  0  0  0  0  0  0  0  0
    0.2710    0.2020  -19.7170 C   0  0  0  0  0  0  0  0  0  0  0  0
   -9.2000   -2.7540  -16.7750 O   0  0  0  0  0  0  0  0  0  0  0  0
   -3.0560   -1.4710  -17.9170 C   0  0  0  0  0  0  0  0  0  0  0  0
   -4.2750   -1.2360  -18.7130 C   0  0  0  0  0  0  0  0  0  0  0  0
    0.0500    0.3280  -18.3680 C   0  0  0  0  0  0  0  0  0  0  0  0
   -8.0500   -2.3920  -17.2030 C   0  0  0  0  0  0  0  0  0  0  0  0
   -0.6750   -0.7440  -17.7360 C   0  0  0  0  0  0  0  0  0  0  0  0
   -6.7310   -1.3290  -18.9180 C   0  0  0  0  0  0  0  0  0  0  0  0
   -1.4650   -1.4350  -19.8420 C   0  0  0  0  0  0  0  0  0  0  0  0
   -3.2400   -1.9770  -16.6760 C   0  0  0  0  0  0  0  0  0  0  0  0
   -7.9570   -1.7460  -18.4570 C   0  0  0  0  0  0  0  0  0  0  0  0
   -2.1460   -2.3590  -15.9720 O   0  0  0  0  0  0  0  0  0  0  0  0
   -6.8990   -2.5290  -16.3980 C   0  0  0  0  0  0  0  0  0  0  0  0
   -5.6130   -2.1530  -16.9050 C   0  0  0  0  0  0  0  0  0  0  0  0
   -0.5160   -0.6640  -20.4870 C   0  0  0  0  0  0  0  0  0  0  0  0
   -1.7540   -1.2690  -18.5130 C   0  0  0  0  0  0  0  0  0  0  0  0
   -6.9930   -3.3250  -15.0940 C   0  0  0  0  0  0  0  0  0  0  0  0
  2 16  4  0
  3  7  1  0
  5 12  4  0
  6  2  4  0
  6  5  4  0
  7  9  1  0
  8  4  2  0
  8 15  1  0
 10 13  2  0
 10  2  1  0
 11 18  1  0
 12  1  4  0
 12 14  1  0
 13  8  1  0
 15 19  1  0
 16 15  1  0
 16  1  4  0
 17 11  2  0
 17  3  1  0
 18  5  1  0
 18  9  1  0
M  END
$$$$

     RDKit          3D

 19 21  0  0  0  0  0  0  0  0999 V2000
   -4.2580   -2.2890  -16.2660 C   0  0  0  0  0  0  0  0  0  0  0  0
   -5.4440   -1.5850  -18.1830 C   0  0  0  0  0  0  0  0  0  0  0  0
   -0.0280    0.5610  -20.2200 N   0  0  0  0  0  0  0  0  0  0  0  0
   -9.1130   -2.9010  -16.6100 O   0  0  0  0  0  0  0  0  0  0  0  0
   -3.0550   -1.3050  -18.0690 N   0  0  0  0  0  0  0  0  0  0  0  0
   -4.2460   -1.3050  -18.7990 C   0  0  0  0  0  0  0  0  0  0  0  0
   -0.3270    0.9110  -18.9550 C   0  0  0  0  0  0  0  0  0  0  0  0
   -7.9390   -2.4180  -17.0700 C   0  0  0  0  0  0  0  0  0  0  0  0
   -1.0860    0.0870  -18.1140 C   0  0  0  0  0  0  0  0  0  0  0  0
   -6.6610   -1.3920  -18.9240 C   0  0  0  0  0  0  0  0  0  0  0  0
   -1.4340   -1.3170  -19.9340 C   0  0  0  0  0  0  0  0  0  0  0  0
   -3.0080   -1.8200  -16.7680 C   0  0  0  0  0  0  0  0  0  0  0  0
   -7.9020   -1.8260  -18.3680 C   0  0  0  0  0  0  0  0  0  0  0  0
   -1.9570   -1.7960  -16.1350 O   0  0  0  0  0  0  0  0  0  0  0  0
   -6.7010   -2.6530  -16.4040 C   0  0  0  0  0  0  0  0  0  0  0  0
   -5.4940   -2.1530  -16.9220 C   0  0  0  0  0  0  0  0  0  0  0  0
   -0.5800   -0.5710  -20.6830 C   0  0  0  0  0  0  0  0  0  0  0  0
   -1.8610   -0.8460  -18.6700 C   0  0  0  0  0  0  0  0  0  0  0  0
   -6.8020   -3.3160  -15.0750 C   0  0  0  0  0  0  0  0  0  0  0  0
  2 16  4  0
  3  7  4  0
  5 12  1  0
  6  2  1  0
  6  5  1  0
  7  9  4  0
  8  4  1  0
  8 15  4  0
 10 13  4  0
 10  2  4  0
 11 18  4  0
 12  1  1  0
 12 14  2  0
 13  8  4  0
 15 19  1  0
 16 15  4  0
 16  1  1  0
 17  3  4  0
 17 11  4  0
 18  9  4  0
 18  5  1  0
M  END
$$$$
