
     RDKit          3D

 21 23  0  0  0  0  0  0  0  0999 V2000
   -6.6070   -1.7770  -17.8960 C   0  0  0  0  0  0  0  0  0  0  0  0
   -2.8560   -1.9190  -17.4840 C   0  0  0  0  0  0  0  0  0  0  0  0
   -7.8270   -3.1370  -14.9570 O   0  0  0  0  0  0  0  0  0  0  0  0
   -4.1140   -1.5750  -18.0010 C   0  0  0  0  0  0  0  0  0  0  0  0
    0.6920   -0.8720  -18.1490 C   0  0  0  0  0  0  0  0  0  0  0  0
   -3.1320   -0.1360  -19.6370 C   0  0  0  0  0  0  0  0  0  0  0  0
   -1.7340   -1.1970  -17.9400 C   0  0  0  0  0  0  0  0  0  0  0  0
   -2.5500   -4.3880  -16.9920 C   0  0  0  0  0  0  0  0  0  0  0  0
   -7.1180   -2.7250  -15.9270 C   0  0  0  0  0  0  0  0  0  0  0  0
   -2.3670   -2.8790  -15.0970 C   0  0  0  0  0  0  0  0  0  0  0  0
   -9.0340   -2.0060  -17.3920 C   0  0  0  0  0  0  0  0  0  0  0  0
   -5.5000   -2.7740  -15.8420 S   0  0  0  0  0  0  0  0  0  0  0  0
   -4.1620   -0.7390  -19.1300 N   0  0  0  0  0  0  0  0  0  0  0  0
    0.4080    0.5030  -18.6060 C   0  0  0  0  0  0  0  0  0  0  0  0
   -7.6500   -2.1290  -17.0450 N   0  0  0  0  0  0  0  0  0  0  0  0
   -2.6280   -3.0120  -16.5810 C   0  0  0  0  0  0  0  0  0  0  0  0
   -6.8700   -1.2490  -19.2880 C   0  0  0  0  0  0  0  0  0  0  0  0
   -0.3810   -1.3180  -17.2890 C   0  0  0  0  0  0  0  0  0  0  0  0
   -0.7560    0.5520  -19.5900 C   0  0  0  0  0  0  0  0  0  0  0  0
   -1.8450   -0.2800  -18.9770 C   0  0  0  0  0  0  0  0  0  0  0  0
   -5.3490   -2.0190  -17.3920 C   0  0  0  0  0  0  0  0  0  0  0  0
  1 21  4  0
  1 15  4  0
  2 16  1  0
  4  2  4  0
  4 21  1  0
  5 18  1  0
  6 13  4  0
  6 20  4  0
  7  2  4  0
  7 18  1  0
  8 16  1  0
  9 12  4  0
  9  3  2  0
 11 15  1  0
 13  4  4  0
 14  5  1  0
 15  9  4  0
 16 10  1  0
 17  1  1  0
 19 20  1  0
 19 14  1  0
 20  7  4  0
 21 12  4  0
M  END
$$$$

     RDKit          3D

 21 23  0  0  0  0  0  0  0  0999 V2000
   -6.6230   -1.7410  -18.0430 C   0  0  0  0  0  0  0  0  0  0  0  0
   -2.6590   -1.7050  -17.3630 C   0  0  0  0  0  0  0  0  0  0  0  0
   -7.4240   -3.2380  -15.0880 O   0  0  0  0  0  0  0  0  0  0  0  0
   -3.9300   -1.3950  -18.0290 C   0  0  0  0  0  0  0  0  0  0  0  0
    1.0050   -0.5390  -17.7800 C   0  0  0  0  0  0  0  0  0  0  0  0
   -2.7270   -0.1230  -19.6630 C   0  0  0  0  0  0  0  0  0  0  0  0
   -1.4650   -1.1150  -17.8510 C   0  0  0  0  0  0  0  0  0  0  0  0
   -2.4750   -4.1670  -16.6790 C   0  0  0  0  0  0  0  0  0  0  0  0
   -6.8450   -2.6470  -16.0420 C   0  0  0  0  0  0  0  0  0  0  0  0
   -2.4370   -2.5740  -14.7980 C   0  0  0  0  0  0  0  0  0  0  0  0
   -8.9750   -2.0840  -17.2110 C   0  0  0  0  0  0  0  0  0  0  0  0
   -5.5330   -2.3770  -16.2010 N   0  0  0  0  0  0  0  0  0  0  0  0
   -3.8210   -0.6590  -19.2190 C   0  0  0  0  0  0  0  0  0  0  0  0
    0.7970    0.1530  -19.0680 C   0  0  0  0  0  0  0  0  0  0  0  0
   -7.5520   -2.1700  -17.0740 N   0  0  0  0  0  0  0  0  0  0  0  0
   -2.6250   -2.7960  -16.2640 N   0  0  0  0  0  0  0  0  0  0  0  0
   -6.9100   -1.3220  -19.2080 O   0  0  0  0  0  0  0  0  0  0  0  0
   -0.1330   -1.1900  -17.2380 C   0  0  0  0  0  0  0  0  0  0  0  0
   -0.4670    0.4990  -19.4550 C   0  0  0  0  0  0  0  0  0  0  0  0
   -1.4880   -0.3830  -19.0270 C   0  0  0  0  0  0  0  0  0  0  0  0
   -5.2400   -1.7960  -17.4350 C   0  0  0  0  0  0  0  0  0  0  0  0
  1 21  1  0
  1 15  1  0
  2 16  1  0
  4 21  1  0
  4  2  4  0
  5 18  4  0
  6 13  4  0
  6 20  4  0
  7  2  4  0
  7 18  4  0
  8 16  1  0
  9  3  2  0
 11 15  1  0
 12  9  1  0
 13  4  4  0
 14  5  4  0
 15  9  1  0
 16 10  1  0
 17  1  2  0
 19 14  4  0
 19 20  4  0
 20  7  4  0
 21 12  2  0
M  END
$$$$

     RDKit          3D

 21 23  0  0  0  0  0  0  0  0999 V2000
   -6.7120   -1.7020  -18.1470 C   0  0  0  0  0  0  0  0  0  0  0  0
   -2.7170   -1.7600  -17.1240 C   0  0  0  0  0  0  0  0  0  0  0  0
   -7.3700   -3.1720  -14.9150 C   0  0  0  0  0  0  0  0  0  0  0  0
   -3.9160   -1.3560  -17.8750 C   0  0  0  0  0  0  0  0  0  0  0  0
    0.8600   -0.6650  -17.5250 C   0  0  0  0  0  0  0  0  0  0  0  0
   -2.7660   -0.3500  -19.6170 N   0  0  0  0  0  0  0  0  0  0  0  0
   -1.4500   -1.2920  -17.6250 C   0  0  0  0  0  0  0  0  0  0  0  0
   -2.9940   -3.8990  -16.3020 O   0  0  0  0  0  0  0  0  0  0  0  0
   -6.9030   -2.6420  -16.2010 C   0  0  0  0  0  0  0  0  0  0  0  0
   -2.7320   -2.2440  -14.5490 C   0  0  0  0  0  0  0  0  0  0  0  0
   -9.0420   -2.2470  -17.5490 C   0  0  0  0  0  0  0  0  0  0  0  0
   -5.5410   -2.1810  -16.2840 N   0  0  0  0  0  0  0  0  0  0  0  0
   -3.8050   -0.8030  -19.1120 C   0  0  0  0  0  0  0  0  0  0  0  0
    0.2330    0.5680  -18.3200 C   0  0  0  0  0  0  0  0  0  0  0  0
   -7.4900   -2.2130  -17.2950 N   0  0  0  0  0  0  0  0  0  0  0  0
   -2.7570   -2.6240  -16.0390 C   0  0  0  0  0  0  0  0  0  0  0  0
   -6.9410   -1.3500  -19.2860 O   0  0  0  0  0  0  0  0  0  0  0  0
   -0.2080   -1.4620  -16.8790 C   0  0  0  0  0  0  0  0  0  0  0  0
   -0.6960    0.2950  -19.1620 C   0  0  0  0  0  0  0  0  0  0  0  0
   -1.5690   -0.8560  -18.9590 C   0  0  0  0  0  0  0  0  0  0  0  0
   -5.3610   -1.6910  -17.5410 C   0  0  0  0  0  0  0  0  0  0  0  0
  1 21  1  0
  1 15  1  0
  2 16  1  0
  4  2  1  0
  5 18  1  0
  6 13  1  0
  6 20  1  0
  7  2  1  0
  7 18  1  0
  8 16  1  0
  9  3  1  0
 11 15  1  0
 12  9  2  0
 13  4  2  0
 14  5  1  0
 15  9  1  0
 16 10  1  0
 17  1  2  0
 19 14  1  0
 20 19  1  0
 20  7  1  0
 21  4  1  0
 21 12  1  0
M  END
$$$$

     RDKit          3D

 21 23  0  0  0  0  0  0  0  0999 V2000
   -6.6290   -1.6980  -18.1230 C   0  0  0  0  0  0  0  0  0  0  0  0
   -2.6970   -1.9620  -17.5250 C   0  0  0  0  0  0  0  0  0  0  0  0
   -7.7080   -3.3180  -15.1520 C   0  0  0  0  0  0  0  0  0  0  0  0
   -3.9330   -1.4370  -18.0230 C   0  0  0  0  0  0  0  0  0  0  0  0
    0.6960   -0.8950  -17.4230 C   0  0  0  0  0  0  0  0  0  0  0  0
   -2.6720    0.0630  -19.5200 C   0  0  0  0  0  0  0  0  0  0  0  0
   -1.4720   -1.5790  -18.1940 C   0  0  0  0  0  0  0  0  0  0  0  0
   -3.0730   -4.0750  -16.4690 C   0  0  0  0  0  0  0  0  0  0  0  0
   -6.9840   -2.6540  -16.2700 N   0  0  0  0  0  0  0  0  0  0  0  0
   -2.1340   -2.3360  -15.0300 C   0  0  0  0  0  0  0  0  0  0  0  0
   -9.0720   -2.1830  -17.5940 C   0  0  0  0  0  0  0  0  0  0  0  0
   -5.5940   -2.5060  -16.3570 C   0  0  0  0  0  0  0  0  0  0  0  0
   -3.8900   -0.4370  -19.0270 C   0  0  0  0  0  0  0  0  0  0  0  0
    0.6960    0.2210  -18.5620 C   0  0  0  0  0  0  0  0  0  0  0  0
   -7.5800   -2.1050  -17.3440 N   0  0  0  0  0  0  0  0  0  0  0  0
   -2.7000   -2.6660  -16.3700 N   0  0  0  0  0  0  0  0  0  0  0  0
   -7.0350   -0.8400  -19.3930 C   0  0  0  0  0  0  0  0  0  0  0  0
   -0.1050   -2.1000  -17.7960 C   0  0  0  0  0  0  0  0  0  0  0  0
   -0.1190   -0.2910  -19.7610 C   0  0  0  0  0  0  0  0  0  0  0  0
   -1.5400   -0.6420  -19.1820 C   0  0  0  0  0  0  0  0  0  0  0  0
   -5.2970   -1.8010  -17.6120 C   0  0  0  0  0  0  0  0  0  0  0  0
  1 17  1  0
  1 21  1  0
  1 15  1  0
  2 16  1  0
  4 21  1  0
  4  2  4  0
  6 20  4  0
  6 13  4  0
  7 18  1  0
  7  2  4  0
  8 16  1  0
  9  3  1  0
 11 15  1  0
 12  9  1  0
 13  4  4  0
 14  5  1  0
 15  9  1  0
 16 10  1  0
 18  5  1  0
 19 20  1  0
 19 14  1  0
 20  7  4  0
 21 12  2  0
M  END
$$$$

     RDKit          3D

 21 23  0  0  0  0  0  0  0  0999 V2000
   -6.4570   -1.7500  -18.0000 C   0  0  0  0  0  0  0  0  0  0  0  0
   -2.7340   -1.8080  -17.3180 C   0  0  0  0  0  0  0  0  0  0  0  0
   -7.7990   -3.1450  -14.9130 N   0  0  0  0  0  0  0  0  0  0  0  0
   -3.9140   -1.5530  -17.9090 C   0  0  0  0  0  0  0  0  0  0  0  0
    0.8610   -0.4030  -17.7220 C   0  0  0  0  0  0  0  0  0  0  0  0
   -2.7300   -0.4490  -19.6450 N   0  0  0  0  0  0  0  0  0  0  0  0
   -1.4620   -0.8620  -17.5840 C   0  0  0  0  0  0  0  0  0  0  0  0
   -2.7340   -4.1420  -16.6730 C   0  0  0  0  0  0  0  0  0  0  0  0
   -7.0900   -2.6960  -15.9450 C   0  0  0  0  0  0  0  0  0  0  0  0
   -2.0220   -2.4470  -14.9770 C   0  0  0  0  0  0  0  0  0  0  0  0
   -8.9840   -2.0420  -17.3950 C   0  0  0  0  0  0  0  0  0  0  0  0
   -5.4810   -2.7400  -15.9210 S   0  0  0  0  0  0  0  0  0  0  0  0
   -3.8440   -0.8950  -19.0900 N   0  0  0  0  0  0  0  0  0  0  0  0
    0.5270    0.5310  -18.7930 C   0  0  0  0  0  0  0  0  0  0  0  0
   -7.5360   -2.1820  -17.1000 N   0  0  0  0  0  0  0  0  0  0  0  0
   -2.5220   -2.7210  -16.3130 N   0  0  0  0  0  0  0  0  0  0  0  0
   -6.6880   -1.0570  -19.2920 C   0  0  0  0  0  0  0  0  0  0  0  0
   -0.1920   -1.5880  -17.6970 C   0  0  0  0  0  0  0  0  0  0  0  0
   -0.4210   -0.1710  -19.8010 C   0  0  0  0  0  0  0  0  0  0  0  0
   -1.6240   -0.5310  -19.0530 C   0  0  0  0  0  0  0  0  0  0  0  0
   -5.2400   -1.9590  -17.4000 C   0  0  0  0  0  0  0  0  0  0  0  0
  1 21  4  0
  1 15  4  0
  2 16  1  0
  4 21  1  0
  4  2  1  0
  5 18  1  0
  6 13  1  0
  6 20  2  0
  7 18  1  0
  7  2  1  0
  8 16  1  0
  9 12  4  0
  9  3  2  0
 11 15  1  0
 13  4  2  0
 14  5  1  0
 15  9  4  0
 16 10  1  0
 17  1  1  0
 19 20  1  0
 19 14  1  0
 20  7  1  0
 21 12  4  0
M  END
$$$$

     RDKit          3D

 21 23  0  0  0  0  0  0  0  0999 V2000
   -6.8430   -1.8190  -17.9050 C   0  0  0  0  0  0  0  0  0  0  0  0
   -3.0660   -2.1190  -17.5690 C   0  0  0  0  0  0  0  0  0  0  0  0
   -7.8130   -3.0610  -14.7200 O   0  0  0  0  0  0  0  0  0  0  0  0
   -4.2930   -1.5750  -17.9490 C   0  0  0  0  0  0  0  0  0  0  0  0
    0.1790   -0.7020  -17.5610 C   0  0  0  0  0  0  0  0  0  0  0  0
   -3.2220    0.0380  -19.3680 C   0  0  0  0  0  0  0  0  0  0  0  0
   -2.0740   -1.4650  -17.9840 C   0  0  0  0  0  0  0  0  0  0  0  0
   -2.4950   -4.3070  -17.1650 O   0  0  0  0  0  0  0  0  0  0  0  0
   -7.1400   -2.6940  -15.8660 C   0  0  0  0  0  0  0  0  0  0  0  0
   -2.4680   -2.9260  -15.4300 O   0  0  0  0  0  0  0  0  0  0  0  0
   -9.2090   -2.2480  -17.2480 C   0  0  0  0  0  0  0  0  0  0  0  0
   -5.5670   -2.8170  -15.9950 S   0  0  0  0  0  0  0  0  0  0  0  0
   -4.2860   -0.7190  -18.9240 N   0  0  0  0  0  0  0  0  0  0  0  0
    0.3920   -0.4790  -19.0020 O   0  0  0  0  0  0  0  0  0  0  0  0
   -7.8090   -2.2760  -17.0000 N   0  0  0  0  0  0  0  0  0  0  0  0
   -2.6750   -3.1360  -16.6820 C   0  0  0  0  0  0  0  0  0  0  0  0
   -7.0520   -1.2970  -18.9780 O   0  0  0  0  0  0  0  0  0  0  0  0
   -0.7370   -1.7680  -17.3250 O   0  0  0  0  0  0  0  0  0  0  0  0
   -0.7770    0.1710  -19.4230 C   0  0  0  0  0  0  0  0  0  0  0  0
   -1.9050   -0.7670  -19.3130 C   0  0  0  0  0  0  0  0  0  0  0  0
   -5.4610   -1.9330  -17.4310 C   0  0  0  0  0  0  0  0  0  0  0  0
  1 15  1  0
  2 16  1  0
  4 13  1  0
  4  2  1  0
  4 21  1  0
  5 18  1  0
  6 20  1  0
  6 13  1  0
  7  2  1  0
  7 18  1  0
  8 16  2  0
  9  3  2  0
 11 15  1  0
 12  9  1  0
 14  5  1  0
 15  9  1  0
 16 10  1  0
 17  1  2  0
 19 14  1  0
 20 19  1  0
 20  7  1  0
 21  1  1  0
 21 12  1  0
M  END
$$$$

     RDKit          3D

 21 23  0  0  0  0  0  0  0  0999 V2000
   -6.7440   -1.7640  -18.0100 C   0  0  0  0  0  0  0  0  0  0  0  0
   -2.8770   -2.0330  -17.2770 C   0  0  0  0  0  0  0  0  0  0  0  0
   -7.7850   -3.3290  -14.8900 C   0  0  0  0  0  0  0  0  0  0  0  0
   -4.1160   -1.7050  -17.8490 C   0  0  0  0  0  0  0  0  0  0  0  0
    0.5930   -0.8450  -17.8590 C   0  0  0  0  0  0  0  0  0  0  0  0
   -3.0370   -0.3950  -19.6050 N   0  0  0  0  0  0  0  0  0  0  0  0
   -1.7180   -1.3390  -17.8430 C   0  0  0  0  0  0  0  0  0  0  0  0
   -3.2110   -4.2260  -16.7700 C   0  0  0  0  0  0  0  0  0  0  0  0
   -7.1130   -2.7270  -16.0830 N   0  0  0  0  0  0  0  0  0  0  0  0
   -2.7870   -2.6190  -14.8880 C   0  0  0  0  0  0  0  0  0  0  0  0
   -9.1070   -2.0920  -17.3850 C   0  0  0  0  0  0  0  0  0  0  0  0
   -5.7810   -2.7370  -16.1660 N   0  0  0  0  0  0  0  0  0  0  0  0
   -4.1370   -0.9600  -19.0390 C   0  0  0  0  0  0  0  0  0  0  0  0
    0.3270    0.1890  -18.7430 C   0  0  0  0  0  0  0  0  0  0  0  0
   -7.7040   -2.1650  -17.1150 N   0  0  0  0  0  0  0  0  0  0  0  0
   -2.8210   -2.9440  -16.2670 N   0  0  0  0  0  0  0  0  0  0  0  0
   -7.1080   -1.2820  -19.3420 C   0  0  0  0  0  0  0  0  0  0  0  0
   -0.4740   -1.5480  -17.3000 C   0  0  0  0  0  0  0  0  0  0  0  0
   -0.8110    0.1440  -19.4590 C   0  0  0  0  0  0  0  0  0  0  0  0
   -1.9570   -0.5530  -18.9800 C   0  0  0  0  0  0  0  0  0  0  0  0
   -5.4710   -2.0850  -17.2870 C   0  0  0  0  0  0  0  0  0  0  0  0
  1 17  1  0
  1 21  1  0
  1 15  1  0
  2 16  1  0
  4 21  1  0
  4  2  4  0
  5 18  4  0
  6 13  4  0
  6 20  4  0
  7 18  4  0
  7  2  4  0
  8 16  1  0
  9  3  1  0
 11 15  1  0
 12  9  1  0
 13  4  4  0
 14  5  4  0
 15  9  1  0
 16 10  1  0
 19 20  4  0
 19 14  4  0
 20  7  4  0
 21 12  2  0
M  END
$$$$

     RDKit          3D

 21 24  0  0  0  0  0  0  0  0999 V2000
   -6.3010   -1.7430  -17.8030 C   0  0  0  0  0  0  0  0  0  0  0  0
   -2.6430   -2.0150  -17.4050 C   0  0  0  0  0  0  0  0  0  0  0  0
   -7.6650   -3.1850  -15.1940 O   0  0  0  0  0  0  0  0  0  0  0  0
   -3.9160   -1.8150  -17.9070 C   0  0  0  0  0  0  0  0  0  0  0  0
    0.4000   -0.3700  -17.9860 C   0  0  0  0  0  0  0  0  0  0  0  0
   -3.2310   -0.6340  -19.8970 C   0  0  0  0  0  0  0  0  0  0  0  0
   -1.6280   -1.4010  -18.1940 C   0  0  0  0  0  0  0  0  0  0  0  0
   -2.6030   -4.0130  -16.4910 O   0  0  0  0  0  0  0  0  0  0  0  0
   -6.9310   -2.7300  -16.0480 C   0  0  0  0  0  0  0  0  0  0  0  0
   -2.1150   -2.3220  -15.1680 O   0  0  0  0  0  0  0  0  0  0  0  0
   -8.7500   -1.7700  -17.4410 C   0  0  0  0  0  0  0  0  0  0  0  0
   -5.5130   -2.9490  -15.9550 C   0  0  0  0  0  0  0  0  0  0  0  0
   -4.2360   -1.1470  -19.1190 C   0  0  0  0  0  0  0  0  0  0  0  0
    0.4750   -0.0870  -19.4800 C   0  0  0  0  0  0  0  0  0  0  0  0
   -7.3620   -2.0210  -17.1380 N   0  0  0  0  0  0  0  0  0  0  0  0
   -2.3600   -2.8650  -16.2200 C   0  0  0  0  0  0  0  0  0  0  0  0
   -5.9730   -1.0000  -19.3410 S   0  0  0  0  0  0  0  0  0  0  0  0
   -0.1860   -1.7950  -17.8880 C   0  0  0  0  0  0  0  0  0  0  0  0
   -0.8700   -0.1540  -20.2140 C   0  0  0  0  0  0  0  0  0  0  0  0
   -1.8850   -0.7850  -19.3720 C   0  0  0  0  0  0  0  0  0  0  0  0
   -5.1220   -2.1980  -17.1730 C   0  0  0  0  0  0  0  0  0  0  0  0
  1 21  4  0
  1 15  1  0
  2 16  1  0
  4  2  4  0
  4 21  4  0
  5 18  1  0
  6 20  4  0
  6 13  4  0
  7 18  1  0
  7  2  4  0
  8 16  2  0
  9 12  1  0
  9  3  2  0
 11 15  1  0
 13  4  4  0
 14  5  1  0
 15  9  1  0
 16 10  1  0
 17 13  4  0
 17  1  4  0
 19 14  1  0
 19 20  1  0
 20  7  4  0
 21 12  1  0
M  END
$$$$

     RDKit          3D

 21 23  0  0  0  0  0  0  0  0999 V2000
   -6.5880   -1.7410  -17.9770 C   0  0  0  0  0  0  0  0  0  0  0  0
   -2.8390   -2.0470  -17.5410 C   0  0  0  0  0  0  0  0  0  0  0  0
   -7.5470   -3.3480  -14.9920 O   0  0  0  0  0  0  0  0  0  0  0  0
   -4.0600   -1.6440  -18.1270 C   0  0  0  0  0  0  0  0  0  0  0  0
    0.6250   -0.6780  -17.6830 C   0  0  0  0  0  0  0  0  0  0  0  0
   -2.9710   -0.1050  -19.7840 C   0  0  0  0  0  0  0  0  0  0  0  0
   -1.7410   -1.2720  -17.8280 C   0  0  0  0  0  0  0  0  0  0  0  0
   -2.5600   -4.2990  -17.3640 O   0  0  0  0  0  0  0  0  0  0  0  0
   -6.9890   -2.7940  -15.9840 C   0  0  0  0  0  0  0  0  0  0  0  0
   -2.4510   -3.2260  -15.3140 C   0  0  0  0  0  0  0  0  0  0  0  0
   -8.9440   -2.1870  -17.2910 C   0  0  0  0  0  0  0  0  0  0  0  0
   -5.2660   -2.8130  -15.9180 S   0  0  0  0  0  0  0  0  0  0  0  0
   -4.1310   -0.9100  -19.3570 C   0  0  0  0  0  0  0  0  0  0  0  0
    0.5850    0.0090  -18.7410 C   0  0  0  0  0  0  0  0  0  0  0  0
   -7.5130   -2.1750  -17.0670 N   0  0  0  0  0  0  0  0  0  0  0  0
   -2.5500   -3.1750  -16.8110 C   0  0  0  0  0  0  0  0  0  0  0  0
   -6.9200   -1.0800  -19.1020 N   0  0  0  0  0  0  0  0  0  0  0  0
   -0.4900   -1.6440  -17.3410 C   0  0  0  0  0  0  0  0  0  0  0  0
   -0.7000    0.5770  -19.1970 C   0  0  0  0  0  0  0  0  0  0  0  0
   -1.8110   -0.2280  -18.9510 C   0  0  0  0  0  0  0  0  0  0  0  0
   -5.2960   -1.9670  -17.4870 C   0  0  0  0  0  0  0  0  0  0  0  0
  1 21  4  0
  1 15  4  0
  2 16  1  0
  4  2  1  0
  4 21  1  0
  5 18  1  0
  6 13  1  0
  7  2  2  0
  7 18  1  0
  8 16  2  0
  9 12  4  0
  9  3  2  0
 11 15  1  0
 13  4  1  0
 14  5  1  0
 15  9  4  0
 16 10  1  0
 17  1  1  0
 19 20  1  0
 19 14  1  0
 20  6  1  0
 20  7  1  0
 21 12  4  0
M  END
$$$$

     RDKit          3D

 21 23  0  0  0  0  0  0  0  0999 V2000
   -6.6500   -1.6690  -18.1180 C   0  0  0  0  0  0  0  0  0  0  0  0
   -2.6560   -1.6870  -17.4880 C   0  0  0  0  0  0  0  0  0  0  0  0
   -7.6190   -3.3000  -15.0780 C   0  0  0  0  0  0  0  0  0  0  0  0
   -3.9580   -1.3990  -18.0740 C   0  0  0  0  0  0  0  0  0  0  0  0
    0.8380   -0.8830  -17.6690 N   0  0  0  0  0  0  0  0  0  0  0  0
   -2.7440   -0.0600  -19.7460 C   0  0  0  0  0  0  0  0  0  0  0  0
   -1.5580   -1.2760  -18.0170 C   0  0  0  0  0  0  0  0  0  0  0  0
   -2.8540   -4.0970  -16.5870 C   0  0  0  0  0  0  0  0  0  0  0  0
   -6.9150   -2.6590  -16.2370 C   0  0  0  0  0  0  0  0  0  0  0  0
   -2.7310   -2.4560  -14.9480 C   0  0  0  0  0  0  0  0  0  0  0  0
   -9.0440   -2.0740  -17.3400 C   0  0  0  0  0  0  0  0  0  0  0  0
   -5.5620   -2.4850  -16.4120 N   0  0  0  0  0  0  0  0  0  0  0  0
   -3.9070   -0.5550  -19.2030 C   0  0  0  0  0  0  0  0  0  0  0  0
    0.8000   -0.0650  -18.7840 C   0  0  0  0  0  0  0  0  0  0  0  0
   -7.5730   -2.1810  -17.2620 N   0  0  0  0  0  0  0  0  0  0  0  0
   -2.7960   -2.6820  -16.3990 N   0  0  0  0  0  0  0  0  0  0  0  0
   -6.9990   -1.2580  -19.2980 O   0  0  0  0  0  0  0  0  0  0  0  0
   -0.3800   -1.3810  -17.2510 C   0  0  0  0  0  0  0  0  0  0  0  0
   -0.4020    0.3610  -19.4160 C   0  0  0  0  0  0  0  0  0  0  0  0
   -1.5680   -0.3340  -19.0930 C   0  0  0  0  0  0  0  0  0  0  0  0
   -5.2710   -1.8250  -17.5770 C   0  0  0  0  0  0  0  0  0  0  0  0
  1 21  1  0
  1 15  1  0
  2 16  1  0
  4  2  4  0
  5 18  4  0
  6 13  4  0
  6 20  4  0
  7  2  4  0
  7 18  4  0
  8 16  1  0
  9  3  1  0
 11 15  1  0
 12  9  2  0
 13  4  4  0
 14  5  4  0
 15  9  1  0
 16 10  1  0
 17  1  2  0
 19 20  4  0
 19 14  4  0
 20  7  4  0
 21  4  1  0
 21 12  1  0
M  END
$$$$

     RDKit          3D

 21 23  0  0  0  0  0  0  0  0999 V2000
   -6.5090   -1.5610  -17.9860 C   0  0  0  0  0  0  0  0  0  0  0  0
   -2.8140   -1.8220  -17.1600 C   0  0  0  0  0  0  0  0  0  0  0  0
   -7.3080   -3.5490  -15.0250 C   0  0  0  0  0  0  0  0  0  0  0  0
   -4.0100   -1.5630  -17.9620 C   0  0  0  0  0  0  0  0  0  0  0  0
    0.7640   -0.6550  -17.3580 C   0  0  0  0  0  0  0  0  0  0  0  0
   -2.7130   -0.3970  -19.5650 C   0  0  0  0  0  0  0  0  0  0  0  0
   -1.6100   -1.2840  -17.6640 C   0  0  0  0  0  0  0  0  0  0  0  0
   -3.1800   -4.1380  -16.3960 O   0  0  0  0  0  0  0  0  0  0  0  0
   -6.7980   -2.7230  -16.1540 C   0  0  0  0  0  0  0  0  0  0  0  0
   -2.6340   -2.7390  -14.5430 C   0  0  0  0  0  0  0  0  0  0  0  0
   -8.8650   -1.7390  -17.2520 C   0  0  0  0  0  0  0  0  0  0  0  0
   -5.4640   -2.6450  -16.2970 N   0  0  0  0  0  0  0  0  0  0  0  0
   -3.9710   -0.8780  -19.1590 C   0  0  0  0  0  0  0  0  0  0  0  0
    0.4770    0.6990  -18.1260 C   0  0  0  0  0  0  0  0  0  0  0  0
   -7.4900   -2.0480  -17.1110 N   0  0  0  0  0  0  0  0  0  0  0  0
   -2.7250   -2.8890  -16.0640 C   0  0  0  0  0  0  0  0  0  0  0  0
   -6.7760   -1.0340  -19.0970 O   0  0  0  0  0  0  0  0  0  0  0  0
   -0.4660   -1.1310  -16.7100 C   0  0  0  0  0  0  0  0  0  0  0  0
   -0.3180    0.0700  -19.1870 C   0  0  0  0  0  0  0  0  0  0  0  0
   -1.6410   -0.4120  -18.7480 C   0  0  0  0  0  0  0  0  0  0  0  0
   -5.2870   -1.9030  -17.4220 C   0  0  0  0  0  0  0  0  0  0  0  0
  1 21  1  0
  1 15  1  0
  2 16  1  0
  4  2  4  0
  5 18  1  0
  6 13  4  0
  6 20  4  0
  7  2  4  0
  7 18  1  0
  8 16  1  0
  9  3  1  0
 11 15  1  0
 12  9  2  0
 13  4  4  0
 14  5  1  0
 15  9  1  0
 16 10  1  0
 17  1  2  0
 19 20  1  0
 19 14  1  0
 20  7  4  0
 21  4  1  0
 21 12  1  0
M  END
$$$$

     RDKit          3D

 21 23  0  0  0  0  0  0  0  0999 V2000
   -6.7780   -1.6540  -18.1320 C   0  0  0  0  0  0  0  0  0  0  0  0
   -2.7520   -1.9150  -17.6020 C   0  0  0  0  0  0  0  0  0  0  0  0
   -7.7780   -3.2890  -14.9830 C   0  0  0  0  0  0  0  0  0  0  0  0
   -4.0650   -1.4100  -18.1520 C   0  0  0  0  0  0  0  0  0  0  0  0
    0.7710   -0.9380  -17.6420 C   0  0  0  0  0  0  0  0  0  0  0  0
   -2.7410   -0.1370  -19.8960 C   0  0  0  0  0  0  0  0  0  0  0  0
   -1.5370   -1.4620  -18.1750 C   0  0  0  0  0  0  0  0  0  0  0  0
   -3.2500   -4.2070  -16.5730 C   0  0  0  0  0  0  0  0  0  0  0  0
   -7.0950   -2.6610  -16.2270 C   0  0  0  0  0  0  0  0  0  0  0  0
   -1.9610   -2.5710  -15.2280 C   0  0  0  0  0  0  0  0  0  0  0  0
   -9.2860   -2.2180  -17.4660 C   0  0  0  0  0  0  0  0  0  0  0  0
   -5.7000   -2.5370  -16.4550 C   0  0  0  0  0  0  0  0  0  0  0  0
   -3.9780   -0.5380  -19.3760 C   0  0  0  0  0  0  0  0  0  0  0  0
    0.8230    0.0480  -18.8310 N   0  0  0  0  0  0  0  0  0  0  0  0
   -7.7790   -2.1430  -17.2990 N   0  0  0  0  0  0  0  0  0  0  0  0
   -2.7450   -2.8460  -16.4390 N   0  0  0  0  0  0  0  0  0  0  0  0
   -7.1940   -0.9050  -19.1620 N   0  0  0  0  0  0  0  0  0  0  0  0
   -0.1800   -2.0690  -17.8670 C   0  0  0  0  0  0  0  0  0  0  0  0
   -0.1870   -0.0850  -19.7560 C   0  0  0  0  0  0  0  0  0  0  0  0
   -1.4750   -0.6010  -19.2570 C   0  0  0  0  0  0  0  0  0  0  0  0
   -5.4500   -1.8270  -17.6020 C   0  0  0  0  0  0  0  0  0  0  0  0
  1 21  4  0
  1 15  4  0
  2 16  1  0
  4  2  4  0
  4 21  1  0
  6 13  4  0
  6 20  4  0
  7 18  1  0
  7  2  4  0
  8 16  1  0
  9  3  1  0
 11 15  1  0
 12  9  4  0
 13  4  4  0
 14  5  1  0
 15  9  4  0
 16 10  1  0
 17  1  1  0
 18  5  1  0
 19 20  1  0
 19 14  1  0
 20  7  4  0
 21 12  4  0
M  END
$$$$

     RDKit          3D

 21 23  0  0  0  0  0  0  0  0999 V2000
   -6.5750   -1.8240  -17.9380 C   0  0  0  0  0  0  0  0  0  0  0  0
   -2.7340   -1.6380  -17.0580 C   0  0  0  0  0  0  0  0  0  0  0  0
   -7.9540   -3.4560  -14.8890 C   0  0  0  0  0  0  0  0  0  0  0  0
   -3.9460   -1.6640  -17.8910 C   0  0  0  0  0  0  0  0  0  0  0  0
    0.8730   -0.7640  -17.9360 N   0  0  0  0  0  0  0  0  0  0  0  0
   -2.8470   -0.5900  -19.5940 N   0  0  0  0  0  0  0  0  0  0  0  0
   -1.6380   -1.1990  -17.7850 C   0  0  0  0  0  0  0  0  0  0  0  0
   -3.0300   -4.0400  -16.6380 C   0  0  0  0  0  0  0  0  0  0  0  0
   -7.2490   -2.8000  -15.9630 C   0  0  0  0  0  0  0  0  0  0  0  0
   -2.3860   -2.3830  -14.7370 C   0  0  0  0  0  0  0  0  0  0  0  0
   -8.9540   -1.9000  -17.3530 C   0  0  0  0  0  0  0  0  0  0  0  0
   -5.5050   -2.7070  -15.8850 S   0  0  0  0  0  0  0  0  0  0  0  0
   -3.8830   -1.1160  -19.0710 C   0  0  0  0  0  0  0  0  0  0  0  0
    0.3160    0.4440  -18.5830 C   0  0  0  0  0  0  0  0  0  0  0  0
   -7.5930   -2.2020  -17.0480 N   0  0  0  0  0  0  0  0  0  0  0  0
   -2.6850   -2.6880  -16.2030 N   0  0  0  0  0  0  0  0  0  0  0  0
   -6.7890   -1.3340  -19.2950 C   0  0  0  0  0  0  0  0  0  0  0  0
   -0.2300   -1.5250  -17.2760 C   0  0  0  0  0  0  0  0  0  0  0  0
   -0.5200   -0.1300  -19.7860 C   0  0  0  0  0  0  0  0  0  0  0  0
   -1.7220   -0.6540  -18.9630 C   0  0  0  0  0  0  0  0  0  0  0  0
   -5.2440   -1.9610  -17.3780 C   0  0  0  0  0  0  0  0  0  0  0  0
  1 21  2  0
  1 15  1  0
  2 16  1  0
  4 21  1  0
  4  2  4  0
  5 18  1  0
  6 13  4  0
  6 20  4  0
  7 18  1  0
  7  2  4  0
  8 16  1  0
  9 12  1  0
  9  3  1  0
 11 15  1  0
 13  4  4  0
 14  5  1  0
 15  9  1  0
 16 10  1  0
 17  1  1  0
 19 20  1  0
 19 14  1  0
 20  7  4  0
 21 12  1  0
M  END
$$$$

     RDKit          3D

 21 23  0  0  0  0  0  0  0  0999 V2000
   -6.8680   -1.7450  -17.8290 C   0  0  0  0  0  0  0  0  0  0  0  0
   -2.9670   -2.0700  -17.4560 C   0  0  0  0  0  0  0  0  0  0  0  0
   -7.9770   -3.3610  -14.8140 C   0  0  0  0  0  0  0  0  0  0  0  0
   -4.2430   -1.6610  -17.9330 C   0  0  0  0  0  0  0  0  0  0  0  0
    0.3940   -0.5270  -17.9090 C   0  0  0  0  0  0  0  0  0  0  0  0
   -3.1170   -0.2800  -19.6470 C   0  0  0  0  0  0  0  0  0  0  0  0
   -1.7580   -1.5220  -18.1760 C   0  0  0  0  0  0  0  0  0  0  0  0
   -2.3740   -4.1630  -16.8290 O   0  0  0  0  0  0  0  0  0  0  0  0
   -7.2670   -2.8260  -15.8620 C   0  0  0  0  0  0  0  0  0  0  0  0
   -2.2530   -2.4910  -15.3230 O   0  0  0  0  0  0  0  0  0  0  0  0
   -9.2320   -1.9880  -17.1820 C   0  0  0  0  0  0  0  0  0  0  0  0
   -5.5130   -2.9030  -15.8710 S   0  0  0  0  0  0  0  0  0  0  0  0
   -4.3070   -0.8350  -19.1570 C   0  0  0  0  0  0  0  0  0  0  0  0
    0.5340   -0.3090  -18.8920 O   0  0  0  0  0  0  0  0  0  0  0  0
   -7.8120   -2.2080  -16.9630 N   0  0  0  0  0  0  0  0  0  0  0  0
   -2.5540   -2.9460  -16.4630 C   0  0  0  0  0  0  0  0  0  0  0  0
   -7.1730   -1.2150  -18.9390 O   0  0  0  0  0  0  0  0  0  0  0  0
   -0.4290   -1.6820  -17.4580 C   0  0  0  0  0  0  0  0  0  0  0  0
   -0.7300    0.2910  -19.5980 C   0  0  0  0  0  0  0  0  0  0  0  0
   -1.8620   -0.5550  -19.1530 C   0  0  0  0  0  0  0  0  0  0  0  0
   -5.5230   -2.0540  -17.3710 C   0  0  0  0  0  0  0  0  0  0  0  0
  1 21  1  0
  1 15  1  0
  2 16  1  0
  4  2  4  0
  5 18  1  0
  6 13  4  0
  6 20  4  0
  7 18  1  0
  7  2  4  0
  8 16  2  0
  9  3  2  0
 11 15  1  0
 12  9  1  0
 13  4  4  0
 14  5  1  0
 15  9  1  0
 16 10  1  0
 17  1  2  0
 19 20  1  0
 19 14  1  0
 20  7  4  0
 21  4  1  0
 21 12  1  0
M  END
$$$$

     RDKit          3D

 21 23  0  0  0  0  0  0  0  0999 V2000
   -6.8810   -1.7380  -18.1980 C   0  0  0  0  0  0  0  0  0  0  0  0
   -2.9980   -1.8580  -17.5100 N   0  0  0  0  0  0  0  0  0  0  0  0
   -7.9170   -3.2800  -14.9860 C   0  0  0  0  0  0  0  0  0  0  0  0
   -4.2750   -1.7050  -18.0400 C   0  0  0  0  0  0  0  0  0  0  0  0
    0.7780   -0.6290  -17.9990 C   0  0  0  0  0  0  0  0  0  0  0  0
   -2.9370   -0.7030  -19.8520 N   0  0  0  0  0  0  0  0  0  0  0  0
   -1.7760   -1.1600  -17.8570 C   0  0  0  0  0  0  0  0  0  0  0  0
   -2.6130   -4.1640  -16.8250 C   0  0  0  0  0  0  0  0  0  0  0  0
   -7.2420   -2.7000  -16.1570 N   0  0  0  0  0  0  0  0  0  0  0  0
   -2.7150   -2.3940  -15.3450 O   0  0  0  0  0  0  0  0  0  0  0  0
   -9.4110   -1.9850  -17.3970 C   0  0  0  0  0  0  0  0  0  0  0  0
   -5.8580   -2.5310  -16.3480 N   0  0  0  0  0  0  0  0  0  0  0  0
   -4.0470   -1.0110  -19.1650 C   0  0  0  0  0  0  0  0  0  0  0  0
    0.3810    0.6000  -18.7780 C   0  0  0  0  0  0  0  0  0  0  0  0
   -7.8920   -2.1450  -17.2610 C   0  0  0  0  0  0  0  0  0  0  0  0
   -2.8230   -2.8210  -16.4990 N   0  0  0  0  0  0  0  0  0  0  0  0
   -7.1560   -1.2450  -19.3070 C   0  0  0  0  0  0  0  0  0  0  0  0
   -0.1830   -1.6440  -17.6110 C   0  0  0  0  0  0  0  0  0  0  0  0
   -0.7480    0.2830  -19.6860 C   0  0  0  0  0  0  0  0  0  0  0  0
   -1.6300   -0.9800  -19.3660 C   0  0  0  0  0  0  0  0  0  0  0  0
   -5.5680   -1.9910  -17.5630 C   0  0  0  0  0  0  0  0  0  0  0  0
  1 21  4  0
  1 15  4  0
  2 16  1  0
  4 21  1  0
  4  2  1  0
  5 18  1  0
  6 20  1  0
  6 13  2  0
  7 18  1  0
  7  2  1  0
  8 16  1  0
  9  3  1  0
 11 15  1  0
 12  9  4  0
 13  4  1  0
 14  5  1  0
 15  9  4  0
 16 10  1  0
 17  1  1  0
 19 14  1  0
 20 19  1  0
 20  7  1  0
 21 12  4  0
M  END
$$$$

     RDKit          3D

 21 24  0  0  0  0  0  0  0  0999 V2000
   -6.2600   -1.6990  -17.8380 C   0  0  0  0  0  0  0  0  0  0  0  0
   -2.6950   -1.9420  -17.4870 C   0  0  0  0  0  0  0  0  0  0  0  0
   -7.5960   -3.3360  -15.0030 C   0  0  0  0  0  0  0  0  0  0  0  0
   -3.9450   -1.7180  -17.8450 C   0  0  0  0  0  0  0  0  0  0  0  0
    0.6090   -0.3810  -18.1400 C   0  0  0  0  0  0  0  0  0  0  0  0
   -3.1400   -0.4850  -19.8370 C   0  0  0  0  0  0  0  0  0  0  0  0
   -1.5920   -1.2860  -18.0620 C   0  0  0  0  0  0  0  0  0  0  0  0
   -2.3330   -4.1160  -16.8620 O   0  0  0  0  0  0  0  0  0  0  0  0
   -6.8340   -2.6730  -16.1110 C   0  0  0  0  0  0  0  0  0  0  0  0
   -2.0960   -2.5220  -15.3480 N   0  0  0  0  0  0  0  0  0  0  0  0
   -8.6880   -1.6940  -17.4880 C   0  0  0  0  0  0  0  0  0  0  0  0
   -5.4940   -2.8050  -16.1480 N   0  0  0  0  0  0  0  0  0  0  0  0
   -4.2220   -1.1350  -19.0240 C   0  0  0  0  0  0  0  0  0  0  0  0
    0.5670   -0.1090  -19.3850 C   0  0  0  0  0  0  0  0  0  0  0  0
   -7.2900   -2.0370  -17.1170 N   0  0  0  0  0  0  0  0  0  0  0  0
   -2.3560   -2.9600  -16.5760 C   0  0  0  0  0  0  0  0  0  0  0  0
   -5.8670   -0.9400  -19.2960 S   0  0  0  0  0  0  0  0  0  0  0  0
   -0.1790   -1.4230  -17.5790 C   0  0  0  0  0  0  0  0  0  0  0  0
   -0.9270    0.2780  -19.7390 C   0  0  0  0  0  0  0  0  0  0  0  0
   -1.6990   -0.8220  -19.5330 N   0  0  0  0  0  0  0  0  0  0  0  0
   -5.0950   -2.1340  -17.3050 C   0  0  0  0  0  0  0  0  0  0  0  0
  1 21  4  0
  1 15  4  0
  2 16  1  0
  4  2  1  0
  4 21  4  0
  5 18  1  0
  6 13  1  0
  7 18  1  0
  7  2  1  0
  8 16  2  0
  9  3  1  0
 11 15  1  0
 12  9  4  0
 13  4  4  0
 14  5  1  0
 15  9  4  0
 16 10  1  0
 17 13  4  0
 17  1  4  0
 19 20  1  0
 19 14  1  0
 20  6  1  0
 20  7  1  0
 21 12  4  0
M  END
$$$$

     RDKit          3D

 21 23  0  0  0  0  0  0  0  0999 V2000
   -6.7170   -1.6990  -18.0920 C   0  0  0  0  0  0  0  0  0  0  0  0
   -2.8740   -1.9840  -17.5510 C   0  0  0  0  0  0  0  0  0  0  0  0
   -7.5790   -3.1200  -15.0210 O   0  0  0  0  0  0  0  0  0  0  0  0
   -4.1570   -1.5860  -18.0630 C   0  0  0  0  0  0  0  0  0  0  0  0
    0.5490   -0.8610  -17.8550 C   0  0  0  0  0  0  0  0  0  0  0  0
   -2.9890   -0.2070  -19.6830 C   0  0  0  0  0  0  0  0  0  0  0  0
   -1.7950   -1.2790  -18.0010 C   0  0  0  0  0  0  0  0  0  0  0  0
   -2.6940   -4.3580  -17.2130 C   0  0  0  0  0  0  0  0  0  0  0  0
   -7.0310   -2.6230  -16.0550 C   0  0  0  0  0  0  0  0  0  0  0  0
   -2.5320   -2.7420  -15.2780 C   0  0  0  0  0  0  0  0  0  0  0  0
   -9.0770   -2.0610  -17.4170 C   0  0  0  0  0  0  0  0  0  0  0  0
   -5.7150   -2.5670  -16.2420 N   0  0  0  0  0  0  0  0  0  0  0  0
   -4.1630   -0.7820  -19.2900 C   0  0  0  0  0  0  0  0  0  0  0  0
    0.4100    0.1640  -18.7160 C   0  0  0  0  0  0  0  0  0  0  0  0
   -7.5670   -2.1500  -17.1630 N   0  0  0  0  0  0  0  0  0  0  0  0
   -2.7280   -2.9760  -16.7080 N   0  0  0  0  0  0  0  0  0  0  0  0
   -6.9490   -1.1510  -19.2100 O   0  0  0  0  0  0  0  0  0  0  0  0
   -0.5690   -1.6050  -17.4880 C   0  0  0  0  0  0  0  0  0  0  0  0
   -0.7370    0.3050  -19.4200 C   0  0  0  0  0  0  0  0  0  0  0  0
   -1.8500   -0.3020  -18.9950 C   0  0  0  0  0  0  0  0  0  0  0  0
   -5.3850   -1.9810  -17.4340 C   0  0  0  0  0  0  0  0  0  0  0  0
  1 21  1  0
  1 15  1  0
  2 16  1  0
  4  2  4  0
  4 21  1  0
  5 18  4  0
  6 13  4  0
  6 20  4  0
  7  2  4  0
  7 18  4  0
  8 16  1  0
  9  3  2  0
 11 15  1  0
 12  9  1  0
 13  4  4  0
 14  5  4  0
 15  9  1  0
 16 10  1  0
 17  1  2  0
 19 20  4  0
 19 14  4  0
 20  7  4  0
 21 12  2  0
M  END
$$$$

     RDKit          3D

 21 23  0  0  0  0  0  0  0  0999 V2000
   -6.6440   -1.7890  -18.0350 C   0  0  0  0  0  0  0  0  0  0  0  0
   -2.6400   -1.8870  -17.3350 C   0  0  0  0  0  0  0  0  0  0  0  0
   -7.5090   -3.3370  -14.7810 C   0  0  0  0  0  0  0  0  0  0  0  0
   -3.9650   -1.5430  -18.0350 C   0  0  0  0  0  0  0  0  0  0  0  0
    1.0080   -0.6870  -17.4660 C   0  0  0  0  0  0  0  0  0  0  0  0
   -2.6300   -0.2700  -19.6920 C   0  0  0  0  0  0  0  0  0  0  0  0
   -1.4050   -1.3560  -17.8900 C   0  0  0  0  0  0  0  0  0  0  0  0
   -2.7520   -4.2040  -16.7490 C   0  0  0  0  0  0  0  0  0  0  0  0
   -6.8790   -2.6950  -16.1040 C   0  0  0  0  0  0  0  0  0  0  0  0
   -2.5260   -2.4550  -14.9280 C   0  0  0  0  0  0  0  0  0  0  0  0
   -9.0200   -1.9270  -17.1890 C   0  0  0  0  0  0  0  0  0  0  0  0
   -5.5160   -2.5630  -16.3000 N   0  0  0  0  0  0  0  0  0  0  0  0
   -3.8530   -0.7600  -19.2260 C   0  0  0  0  0  0  0  0  0  0  0  0
    1.0430   -0.3570  -18.9160 C   0  0  0  0  0  0  0  0  0  0  0  0
   -7.5930   -2.1240  -17.0780 N   0  0  0  0  0  0  0  0  0  0  0  0
   -2.5910   -2.8670  -16.3580 N   0  0  0  0  0  0  0  0  0  0  0  0
   -6.9940   -1.2090  -19.4400 C   0  0  0  0  0  0  0  0  0  0  0  0
   -0.1550   -1.5850  -17.0980 C   0  0  0  0  0  0  0  0  0  0  0  0
   -0.2610    0.1840  -19.3140 C   0  0  0  0  0  0  0  0  0  0  0  0
   -1.4290   -0.5040  -18.9110 C   0  0  0  0  0  0  0  0  0  0  0  0
   -5.3320   -1.9730  -17.5020 C   0  0  0  0  0  0  0  0  0  0  0  0
  1 21  4  0
  1 15  4  0
  2 16  1  0
  4 21  1  0
  4  2  4  0
  5 18  1  0
  6 13  4  0
  6 20  4  0
  7  2  4  0
  7 18  1  0
  8 16  1  0
  9  3  1  0
 11 15  1  0
 12  9  4  0
 13  4  4  0
 14  5  1  0
 15  9  4  0
 16 10  1  0
 17  1  1  0
 19 14  1  0
 19 20  1  0
 20  7  4  0
 21 12  4  0
M  END
$$$$

     RDKit          3D

 21 23  0  0  0  0  0  0  0  0999 V2000
   -6.5370   -1.4490  -18.0250 C   0  0  0  0  0  0  0  0  0  0  0  0
   -2.7850   -1.7670  -17.4320 C   0  0  0  0  0  0  0  0  0  0  0  0
   -7.3090   -3.2500  -15.1460 C   0  0  0  0  0  0  0  0  0  0  0  0
   -4.0480   -1.3850  -18.0720 C   0  0  0  0  0  0  0  0  0  0  0  0
    0.5390   -0.7040  -17.4070 C   0  0  0  0  0  0  0  0  0  0  0  0
   -2.7660   -0.2340  -19.7330 C   0  0  0  0  0  0  0  0  0  0  0  0
   -1.7100   -1.0150  -17.6690 C   0  0  0  0  0  0  0  0  0  0  0  0
   -3.0990   -4.1650  -16.4600 C   0  0  0  0  0  0  0  0  0  0  0  0
   -6.8200   -2.5770  -16.2140 C   0  0  0  0  0  0  0  0  0  0  0  0
   -2.6130   -2.4010  -14.7420 C   0  0  0  0  0  0  0  0  0  0  0  0
   -8.9050   -1.7860  -17.2970 C   0  0  0  0  0  0  0  0  0  0  0  0
   -5.5520   -2.4760  -16.3750 N   0  0  0  0  0  0  0  0  0  0  0  0
   -3.9120   -0.8490  -19.2970 C   0  0  0  0  0  0  0  0  0  0  0  0
    0.2440    0.4370  -18.4720 C   0  0  0  0  0  0  0  0  0  0  0  0
   -7.4470   -1.9540  -17.1970 N   0  0  0  0  0  0  0  0  0  0  0  0
   -2.8020   -2.6580  -16.1030 C   0  0  0  0  0  0  0  0  0  0  0  0
   -6.7290   -0.9440  -19.0540 O   0  0  0  0  0  0  0  0  0  0  0  0
   -0.5350   -1.3000  -16.9250 C   0  0  0  0  0  0  0  0  0  0  0  0
   -0.7860    0.7090  -19.0300 C   0  0  0  0  0  0  0  0  0  0  0  0
   -1.7560   -0.3190  -18.7770 C   0  0  0  0  0  0  0  0  0  0  0  0
   -5.2870   -1.7670  -17.5410 C   0  0  0  0  0  0  0  0  0  0  0  0
  1 21  1  0
  1 15  1  0
  2 16  1  0
  4 21  2  3
  4  2  1  0
  5 18  1  0
  6 13  1  0
  7  2  1  0
  7 18  1  0
  8 16  1  0
  9  3  1  0
 11 15  1  0
 12  9  2  0
 13  4  1  0
 14  5  1  0
 15  9  1  0
 16 10  1  0
 17  1  2  0
 19 20  1  0
 19 14  1  0
 20  6  1  0
 20  7  1  0
 21 12  1  0
M  END
$$$$

     RDKit          3D

 21 23  0  0  0  0  0  0  0  0999 V2000
   -6.6210   -1.5750  -18.2250 C   0  0  0  0  0  0  0  0  0  0  0  0
   -2.7780   -1.8080  -17.3990 C   0  0  0  0  0  0  0  0  0  0  0  0
   -7.6800   -3.3600  -15.1970 C   0  0  0  0  0  0  0  0  0  0  0  0
   -3.9090   -1.3300  -17.9550 C   0  0  0  0  0  0  0  0  0  0  0  0
    0.9370   -1.1590  -17.5020 C   0  0  0  0  0  0  0  0  0  0  0  0
   -2.6740   -0.0550  -19.6360 C   0  0  0  0  0  0  0  0  0  0  0  0
   -1.4790   -1.4360  -17.9660 C   0  0  0  0  0  0  0  0  0  0  0  0
   -2.7280   -3.9600  -16.6200 C   0  0  0  0  0  0  0  0  0  0  0  0
   -6.9310   -2.6150  -16.3750 C   0  0  0  0  0  0  0  0  0  0  0  0
   -2.2110   -2.2550  -14.9900 C   0  0  0  0  0  0  0  0  0  0  0  0
   -9.0330   -2.0200  -17.5920 C   0  0  0  0  0  0  0  0  0  0  0  0
   -5.6160   -2.4630  -16.4580 N   0  0  0  0  0  0  0  0  0  0  0  0
   -3.8730   -0.4980  -19.1240 C   0  0  0  0  0  0  0  0  0  0  0  0
    0.8740    0.2470  -18.4680 N   0  0  0  0  0  0  0  0  0  0  0  0
   -7.6250   -2.0580  -17.4390 N   0  0  0  0  0  0  0  0  0  0  0  0
   -2.8490   -2.5820  -16.1990 N   0  0  0  0  0  0  0  0  0  0  0  0
   -6.8820   -0.9610  -19.6050 C   0  0  0  0  0  0  0  0  0  0  0  0
   -0.1090   -2.0430  -17.6150 O   0  0  0  0  0  0  0  0  0  0  0  0
   -0.1930   -0.0900  -19.6590 C   0  0  0  0  0  0  0  0  0  0  0  0
   -1.4390   -0.6620  -19.1370 C   0  0  0  0  0  0  0  0  0  0  0  0
   -5.3270   -1.7040  -17.6840 C   0  0  0  0  0  0  0  0  0  0  0  0
  1 21  4  0
  1 15  4  0
  2 16  1  0
  4 21  1  0
  4  2  4  0
  6 20  4  0
  6 13  4  0
  7 18  1  0
  7  2  4  0
  8 16  1  0
  9  3  1  0
 11 15  1  0
 12  9  4  0
 13  4  4  0
 14  5  1  0
 15  9  4  0
 16 10  1  0
 17  1  1  0
 18  5  1  0
 19 20  1  0
 19 14  1  0
 20  7  4  0
 21 12  4  0
M  END
$$$$

     RDKit          3D

 21 23  0  0  0  0  0  0  0  0999 V2000
   -6.4880   -1.8030  -17.9800 C   0  0  0  0  0  0  0  0  0  0  0  0
   -2.7300   -1.6790  -16.8520 C   0  0  0  0  0  0  0  0  0  0  0  0
   -7.6650   -3.2210  -14.9300 C   0  0  0  0  0  0  0  0  0  0  0  0
   -3.8390   -2.0020  -17.9410 C   0  0  0  0  0  0  0  0  0  0  0  0
    0.6150   -0.1660  -17.4600 C   0  0  0  0  0  0  0  0  0  0  0  0
   -3.0010   -0.5570  -19.4080 N   0  0  0  0  0  0  0  0  0  0  0  0
   -1.6630   -0.9540  -17.5400 C   0  0  0  0  0  0  0  0  0  0  0  0
   -2.9280   -4.0210  -16.7340 O   0  0  0  0  0  0  0  0  0  0  0  0
   -6.8630   -2.7290  -16.1290 C   0  0  0  0  0  0  0  0  0  0  0  0
   -2.3470   -2.7430  -14.5420 C   0  0  0  0  0  0  0  0  0  0  0  0
   -8.8930   -2.0410  -17.4670 C   0  0  0  0  0  0  0  0  0  0  0  0
   -5.5390   -2.7030  -16.1380 N   0  0  0  0  0  0  0  0  0  0  0  0
   -3.6120   -1.0840  -18.5240 N   0  0  0  0  0  0  0  0  0  0  0  0
    0.4020    0.4770  -18.7630 C   0  0  0  0  0  0  0  0  0  0  0  0
   -7.4690   -2.1650  -17.2080 N   0  0  0  0  0  0  0  0  0  0  0  0
   -2.5980   -2.8250  -16.0840 N   0  0  0  0  0  0  0  0  0  0  0  0
   -6.6700   -1.0490  -19.3300 C   0  0  0  0  0  0  0  0  0  0  0  0
   -0.1770   -1.4190  -17.3000 C   0  0  0  0  0  0  0  0  0  0  0  0
   -0.5800   -0.2280  -19.6610 C   0  0  0  0  0  0  0  0  0  0  0  0
   -1.7650   -0.5780  -18.9630 C   0  0  0  0  0  0  0  0  0  0  0  0
   -5.1900   -2.1100  -17.3460 C   0  0  0  0  0  0  0  0  0  0  0  0
  1 21  4  0
  1 15  4  0
  2 16  1  0
  4 21  1  0
  4  2  1  0
  5 18  1  0
  6 20  1  0
  6 13  1  0
  7 18  1  0
  7  2  1  0
  8 16  1  0
  9  3  1  0
 11 15  1  0
 12  9  4  0
 13  4  1  0
 14  5  1  0
 15  9  4  0
 16 10  1  0
 17  1  1  0
 19 14  1  0
 20 19  1  0
 20  7  1  0
 21 12  4  0
M  END
$$$$

     RDKit          3D

 21 23  0  0  0  0  0  0  0  0999 V2000
   -6.8540   -1.7650  -17.9810 C   0  0  0  0  0  0  0  0  0  0  0  0
   -2.9130   -1.9120  -17.6400 C   0  0  0  0  0  0  0  0  0  0  0  0
   -7.9000   -3.1360  -14.9990 O   0  0  0  0  0  0  0  0  0  0  0  0
   -4.2590   -1.6500  -18.0460 C   0  0  0  0  0  0  0  0  0  0  0  0
    0.4390   -0.7840  -17.9680 C   0  0  0  0  0  0  0  0  0  0  0  0
   -3.2530   -0.3360  -19.7560 C   0  0  0  0  0  0  0  0  0  0  0  0
   -1.8140   -1.2830  -18.0900 C   0  0  0  0  0  0  0  0  0  0  0  0
   -2.5590   -4.0870  -17.0680 O   0  0  0  0  0  0  0  0  0  0  0  0
   -7.2650   -2.7460  -15.9840 C   0  0  0  0  0  0  0  0  0  0  0  0
   -2.2230   -2.5260  -15.5340 O   0  0  0  0  0  0  0  0  0  0  0  0
   -9.1600   -2.0830  -17.2820 C   0  0  0  0  0  0  0  0  0  0  0  0
   -5.6030   -2.7500  -15.8980 S   0  0  0  0  0  0  0  0  0  0  0  0
   -4.3340   -0.8310  -19.1840 C   0  0  0  0  0  0  0  0  0  0  0  0
    0.4670   -0.3160  -19.2850 O   0  0  0  0  0  0  0  0  0  0  0  0
   -7.7260   -2.2230  -17.0860 N   0  0  0  0  0  0  0  0  0  0  0  0
   -2.6300   -2.8880  -16.6880 N   0  0  0  0  0  0  0  0  0  0  0  0
   -7.1050   -1.2160  -19.0550 O   0  0  0  0  0  0  0  0  0  0  0  0
   -0.6210   -1.5590  -17.4870 O   0  0  0  0  0  0  0  0  0  0  0  0
   -0.7650    0.1690  -19.7940 C   0  0  0  0  0  0  0  0  0  0  0  0
   -1.9260   -0.5280  -19.2160 C   0  0  0  0  0  0  0  0  0  0  0  0
   -5.5090   -2.0340  -17.5110 C   0  0  0  0  0  0  0  0  0  0  0  0
  1 21  1  0
  1 15  1  0
  2 16  1  0
  4  2  4  0
  5 18  1  0
  6 20  4  0
  6 13  4  0
  7  2  4  0
  7 18  1  0
  8 16  1  0
  9 12  1  0
  9  3  2  0
 11 15  1  0
 13  4  4  0
 14  5  1  0
 15  9  1  0
 16 10  2  0
 17  1  2  0
 19 14  1  0
 19 20  1  0
 20  7  4  0
 21  4  1  0
 21 12  1  0
M  CHG  2   8  -1  16   1
M  END
$$$$

     RDKit          3D

 21 23  0  0  0  0  0  0  0  0999 V2000
   -6.9470   -1.7460  -18.0280 C   0  0  0  0  0  0  0  0  0  0  0  0
   -3.0560   -1.7140  -17.4570 N   0  0  0  0  0  0  0  0  0  0  0  0
   -7.5960   -3.2870  -14.9210 C   0  0  0  0  0  0  0  0  0  0  0  0
   -4.2280   -1.4710  -18.0430 C   0  0  0  0  0  0  0  0  0  0  0  0
    0.5670   -0.8140  -17.9900 C   0  0  0  0  0  0  0  0  0  0  0  0
   -3.1760   -0.1000  -19.7600 C   0  0  0  0  0  0  0  0  0  0  0  0
   -1.8660   -1.3130  -18.0770 C   0  0  0  0  0  0  0  0  0  0  0  0
   -3.2030   -4.0620  -16.8510 C   0  0  0  0  0  0  0  0  0  0  0  0
   -7.0900   -2.7150  -16.1470 N   0  0  0  0  0  0  0  0  0  0  0  0
   -2.9350   -2.5490  -14.8940 C   0  0  0  0  0  0  0  0  0  0  0  0
   -9.1810   -2.5040  -17.2060 C   0  0  0  0  0  0  0  0  0  0  0  0
   -5.7780   -2.5290  -16.3520 N   0  0  0  0  0  0  0  0  0  0  0  0
   -4.3110   -0.6850  -19.1870 C   0  0  0  0  0  0  0  0  0  0  0  0
    0.2790    0.3290  -18.8700 O   0  0  0  0  0  0  0  0  0  0  0  0
   -7.7500   -2.3380  -17.1410 N   0  0  0  0  0  0  0  0  0  0  0  0
   -2.6950   -2.7110  -16.4250 C   0  0  0  0  0  0  0  0  0  0  0  0
   -7.3200   -1.1670  -19.0090 O   0  0  0  0  0  0  0  0  0  0  0  0
   -0.6370   -1.5240  -17.3760 C   0  0  0  0  0  0  0  0  0  0  0  0
   -0.7140   -0.0130  -19.8440 C   0  0  0  0  0  0  0  0  0  0  0  0
   -1.9460   -0.4260  -19.1850 C   0  0  0  0  0  0  0  0  0  0  0  0
   -5.6080   -1.8840  -17.4830 C   0  0  0  0  0  0  0  0  0  0  0  0
  1 21  4  0
  1 15  4  0
  2 16  1  0
  4 21  1  0
  4  2  1  0
  5 18  1  0
  6 13  2  0
  6 20  1  0
  7  2  1  0
  7 18  1  0
  8 16  1  0
  9  3  1  0
 11 15  1  0
 12  9  4  0
 13  4  1  0
 14  5  1  0
 15  9  4  0
 16 10  1  0
 17  1  2  0
 19 20  1  0
 19 14  1  0
 20  7  2  0
 21 12  4  0
M  END
$$$$

     RDKit          3D

 21 24  0  0  0  0  0  0  0  0999 V2000
   -6.1120   -1.8080  -17.8080 C   0  0  0  0  0  0  0  0  0  0  0  0
   -2.6250   -1.9140  -17.3840 C   0  0  0  0  0  0  0  0  0  0  0  0
   -7.8040   -3.2200  -15.0540 C   0  0  0  0  0  0  0  0  0  0  0  0
   -3.8940   -1.6680  -17.8210 C   0  0  0  0  0  0  0  0  0  0  0  0
    0.5170   -0.2270  -17.8480 C   0  0  0  0  0  0  0  0  0  0  0  0
   -3.1510   -0.5130  -19.7570 C   0  0  0  0  0  0  0  0  0  0  0  0
   -1.5770   -1.3990  -17.9510 C   0  0  0  0  0  0  0  0  0  0  0  0
   -2.4060   -4.0360  -16.7360 O   0  0  0  0  0  0  0  0  0  0  0  0
   -6.8220   -2.6700  -16.1300 C   0  0  0  0  0  0  0  0  0  0  0  0
   -1.8220   -2.2140  -15.4850 O   0  0  0  0  0  0  0  0  0  0  0  0
   -8.6160   -1.8810  -17.4590 C   0  0  0  0  0  0  0  0  0  0  0  0
   -5.4070   -2.6730  -15.9710 C   0  0  0  0  0  0  0  0  0  0  0  0
   -4.1590   -1.0030  -19.0190 C   0  0  0  0  0  0  0  0  0  0  0  0
    0.4250    0.1900  -19.2600 C   0  0  0  0  0  0  0  0  0  0  0  0
   -7.2350   -2.1510  -17.2140 N   0  0  0  0  0  0  0  0  0  0  0  0
   -2.3090   -2.7140  -16.2950 N   0  0  0  0  0  0  0  0  0  0  0  0
   -5.7410   -0.8780  -19.2130 S   0  0  0  0  0  0  0  0  0  0  0  0
   -0.1170   -1.4510  -17.6890 C   0  0  0  0  0  0  0  0  0  0  0  0
   -0.7160    0.2830  -19.8860 C   0  0  0  0  0  0  0  0  0  0  0  0
   -1.7910   -0.5320  -19.2440 C   0  0  0  0  0  0  0  0  0  0  0  0
   -5.0270   -2.0640  -17.1710 C   0  0  0  0  0  0  0  0  0  0  0  0
  1 15  4  0
  1 21  4  0
  2 16  1  0
  4  2  4  0
  4 21  4  0
  5 18  1  0
  6 20  4  0
  6 13  4  0
  7 18  1  0
  7  2  4  0
  8 16  1  0
  9 12  4  0
  9  3  1  0
 11 15  1  0
 13  4  4  0
 14  5  1  0
 15  9  4  0
 16 10  2  0
 17 13  4  0
 17  1  4  0
 19 14  1  0
 19 20  1  0
 20  7  4  0
 21 12  4  0
M  CHG  2   8  -1  16   1
M  END
$$$$

     RDKit          3D

 21 23  0  0  0  0  0  0  0  0999 V2000
   -6.7740   -1.8040  -17.9890 C   0  0  0  0  0  0  0  0  0  0  0  0
   -2.9300   -1.9140  -17.5760 C   0  0  0  0  0  0  0  0  0  0  0  0
   -7.4360   -3.2690  -15.0610 O   0  0  0  0  0  0  0  0  0  0  0  0
   -4.0960   -1.5200  -18.1570 C   0  0  0  0  0  0  0  0  0  0  0  0
    0.6500   -0.9920  -17.8850 C   0  0  0  0  0  0  0  0  0  0  0  0
   -2.9260   -0.2040  -19.8800 C   0  0  0  0  0  0  0  0  0  0  0  0
   -1.7390   -1.1760  -17.9610 C   0  0  0  0  0  0  0  0  0  0  0  0
   -2.5350   -4.3650  -17.2120 C   0  0  0  0  0  0  0  0  0  0  0  0
   -6.9990   -2.8070  -16.0520 C   0  0  0  0  0  0  0  0  0  0  0  0
   -2.6790   -2.8540  -15.1350 C   0  0  0  0  0  0  0  0  0  0  0  0
   -9.1390   -2.2050  -17.3040 C   0  0  0  0  0  0  0  0  0  0  0  0
   -5.4940   -2.5560  -16.3980 N   0  0  0  0  0  0  0  0  0  0  0  0
   -4.1840   -0.7580  -19.3550 C   0  0  0  0  0  0  0  0  0  0  0  0
    0.6120    0.0460  -18.8830 C   0  0  0  0  0  0  0  0  0  0  0  0
   -7.7050   -2.2850  -17.1130 N   0  0  0  0  0  0  0  0  0  0  0  0
   -2.8050   -2.9300  -16.6280 C   0  0  0  0  0  0  0  0  0  0  0  0
   -7.2640   -1.2780  -19.0890 F   0  0  0  0  0  0  0  0  0  0  0  0
   -0.5160   -1.4200  -17.2840 C   0  0  0  0  0  0  0  0  0  0  0  0
   -0.6050    0.3460  -19.4480 C   0  0  0  0  0  0  0  0  0  0  0  0
   -1.7770   -0.3320  -19.1290 C   0  0  0  0  0  0  0  0  0  0  0  0
   -5.4080   -1.9410  -17.5240 C   0  0  0  0  0  0  0  0  0  0  0  0
  1 17  1  0
  1 21  1  0
  1 15  1  0
  2 16  1  0
  4  2  4  0
  4 21  1  0
  5 18  4  0
  6 13  4  0
  6 20  4  0
  7  2  4  0
  7 18  4  0
  8 16  1  0
  9  3  2  0
 11 15  1  0
 12  9  1  0
 13  4  4  0
 14  5  4  0
 15  9  1  0
 16 10  1  0
 19 20  4  0
 19 14  4  0
 20  7  4  0
 21 12  2  0
M  END
$$$$

     RDKit          3D

 21 23  0  0  0  0  0  0  0  0999 V2000
   -6.5930   -1.6300  -17.9680 C   0  0  0  0  0  0  0  0  0  0  0  0
   -2.7330   -1.5280  -17.1540 C   0  0  0  0  0  0  0  0  0  0  0  0
   -7.3200   -3.2930  -15.0290 N   0  0  0  0  0  0  0  0  0  0  0  0
   -3.9920   -1.4610  -17.9640 C   0  0  0  0  0  0  0  0  0  0  0  0
    0.9000   -0.9620  -17.6730 O   0  0  0  0  0  0  0  0  0  0  0  0
   -2.7840    0.1960  -19.4770 C   0  0  0  0  0  0  0  0  0  0  0  0
   -1.5230   -1.4380  -18.0580 C   0  0  0  0  0  0  0  0  0  0  0  0
   -2.8080   -4.0510  -16.8260 C   0  0  0  0  0  0  0  0  0  0  0  0
   -6.7320   -2.6850  -16.0410 C   0  0  0  0  0  0  0  0  0  0  0  0
   -2.8570   -2.5730  -14.8600 C   0  0  0  0  0  0  0  0  0  0  0  0
   -8.9030   -2.2440  -17.2540 C   0  0  0  0  0  0  0  0  0  0  0  0
   -5.4440   -2.4630  -16.3010 N   0  0  0  0  0  0  0  0  0  0  0  0
   -3.8090   -0.7950  -19.2030 C   0  0  0  0  0  0  0  0  0  0  0  0
    0.9900    0.0260  -18.6870 C   0  0  0  0  0  0  0  0  0  0  0  0
   -7.4390   -2.1510  -17.1040 N   0  0  0  0  0  0  0  0  0  0  0  0
   -2.7540   -2.7130  -16.3090 N   0  0  0  0  0  0  0  0  0  0  0  0
   -7.0090   -0.8350  -19.2630 C   0  0  0  0  0  0  0  0  0  0  0  0
   -0.3170   -1.5000  -17.0890 C   0  0  0  0  0  0  0  0  0  0  0  0
   -0.2710    0.1400  -19.5560 C   0  0  0  0  0  0  0  0  0  0  0  0
   -1.4430   -0.1500  -18.8400 C   0  0  0  0  0  0  0  0  0  0  0  0
   -5.3020   -1.8100  -17.5040 C   0  0  0  0  0  0  0  0  0  0  0  0
  1 21  4  0
  1 15  4  0
  2 16  1  0
  4 21  1  0
  4  2  1  0
  5 18  1  0
  6 13  1  0
  6 20  1  0
  7  2  1  0
  7 18  1  0
  8 16  1  0
  9  3  1  0
 11 15  1  0
 12  9  4  0
 13  4  1  0
 14  5  1  0
 15  9  4  0
 16 10  1  0
 17  1  1  0
 19 14  1  0
 20 19  1  0
 20  7  1  0
 21 12  4  0
M  END
$$$$

     RDKit          3D

 21 23  0  0  0  0  0  0  0  0999 V2000
   -6.6040   -1.6080  -18.1640 C   0  0  0  0  0  0  0  0  0  0  0  0
   -2.8620   -1.7510  -17.2550 C   0  0  0  0  0  0  0  0  0  0  0  0
   -7.3590   -3.2180  -15.0380 C   0  0  0  0  0  0  0  0  0  0  0  0
   -4.0260   -1.4560  -17.9900 C   0  0  0  0  0  0  0  0  0  0  0  0
    0.7830   -0.4990  -17.6410 C   0  0  0  0  0  0  0  0  0  0  0  0
   -2.8380   -0.3790  -19.7340 C   0  0  0  0  0  0  0  0  0  0  0  0
   -1.6520   -1.1810  -17.7650 C   0  0  0  0  0  0  0  0  0  0  0  0
   -3.3190   -3.8580  -16.4240 O   0  0  0  0  0  0  0  0  0  0  0  0
   -6.7740   -2.5470  -16.2540 C   0  0  0  0  0  0  0  0  0  0  0  0
   -2.9830   -2.2790  -14.7230 C   0  0  0  0  0  0  0  0  0  0  0  0
   -8.9730   -1.9950  -17.4350 C   0  0  0  0  0  0  0  0  0  0  0  0
   -5.5760   -2.3170  -16.3890 N   0  0  0  0  0  0  0  0  0  0  0  0
   -4.0560   -0.7780  -19.2460 C   0  0  0  0  0  0  0  0  0  0  0  0
    0.3280    0.6090  -18.3460 O   0  0  0  0  0  0  0  0  0  0  0  0
   -7.4910   -2.1090  -17.2730 N   0  0  0  0  0  0  0  0  0  0  0  0
   -2.9970   -2.7000  -16.2000 C   0  0  0  0  0  0  0  0  0  0  0  0
   -6.8560   -1.1130  -19.2530 O   0  0  0  0  0  0  0  0  0  0  0  0
   -0.3740   -1.3500  -17.0220 C   0  0  0  0  0  0  0  0  0  0  0  0
   -0.5880    0.4840  -19.3110 C   0  0  0  0  0  0  0  0  0  0  0  0
   -1.6920   -0.4890  -18.9630 C   0  0  0  0  0  0  0  0  0  0  0  0
   -5.3150   -1.8110  -17.5660 C   0  0  0  0  0  0  0  0  0  0  0  0
  1 21  1  0
  1 15  1  0
  2 16  1  0
  4  2  4  0
  5 18  1  0
  6 13  4  0
  6 20  4  0
  7  2  4  0
  7 18  1  0
  8 16  2  0
  9  3  1  0
 11 15  1  0
 12  9  2  0
 13  4  4  0
 14  5  1  0
 15  9  1  0
 16 10  1  0
 17  1  2  0
 19 20  1  0
 19 14  1  0
 20  7  4  0
 21  4  1  0
 21 12  1  0
M  END
$$$$

     RDKit          3D

 21 23  0  0  0  0  0  0  0  0999 V2000
   -6.6470   -1.5940  -18.2920 C   0  0  0  0  0  0  0  0  0  0  0  0
   -2.8120   -1.9460  -17.5600 C   0  0  0  0  0  0  0  0  0  0  0  0
   -7.6990   -3.1170  -15.2710 C   0  0  0  0  0  0  0  0  0  0  0  0
   -3.9900   -1.4490  -18.1570 C   0  0  0  0  0  0  0  0  0  0  0  0
    0.8820   -0.9650  -17.7160 C   0  0  0  0  0  0  0  0  0  0  0  0
   -2.8090   -0.0750  -19.7920 C   0  0  0  0  0  0  0  0  0  0  0  0
   -1.5770   -1.4550  -18.0670 C   0  0  0  0  0  0  0  0  0  0  0  0
   -3.1230   -4.2820  -16.7370 C   0  0  0  0  0  0  0  0  0  0  0  0
   -6.9830   -2.5000  -16.3040 N   0  0  0  0  0  0  0  0  0  0  0  0
   -2.2690   -2.6070  -15.0770 C   0  0  0  0  0  0  0  0  0  0  0  0
   -9.0390   -2.1370  -17.6270 C   0  0  0  0  0  0  0  0  0  0  0  0
   -5.6370   -2.2360  -16.4630 N   0  0  0  0  0  0  0  0  0  0  0  0
   -3.9830   -0.6000  -19.2820 C   0  0  0  0  0  0  0  0  0  0  0  0
    0.7210    0.1640  -18.6520 C   0  0  0  0  0  0  0  0  0  0  0  0
   -7.6190   -2.1260  -17.4280 N   0  0  0  0  0  0  0  0  0  0  0  0
   -2.8840   -2.8200  -16.3980 N   0  0  0  0  0  0  0  0  0  0  0  0
   -7.0430   -0.8920  -19.6010 C   0  0  0  0  0  0  0  0  0  0  0  0
   -0.1910   -1.9170  -17.5520 C   0  0  0  0  0  0  0  0  0  0  0  0
   -0.3520   -0.0190  -19.7230 C   0  0  0  0  0  0  0  0  0  0  0  0
   -1.6350   -0.4910  -19.0440 C   0  0  0  0  0  0  0  0  0  0  0  0
   -5.4000   -1.7540  -17.6210 C   0  0  0  0  0  0  0  0  0  0  0  0
  1 17  1  0
  1 21  1  0
  1 15  1  0
  2 16  1  0
  4 21  1  0
  4  2  4  0
  5 18  1  0
  6 13  4  0
  6 20  4  0
  7  2  4  0
  7 18  1  0
  8 16  1  0
  9  3  1  0
 11 15  1  0
 12  9  1  0
 13  4  4  0
 14  5  1  0
 15  9  1  0
 16 10  1  0
 19 20  1  0
 19 14  1  0
 20  7  4  0
 21 12  2  0
M  END
$$$$

     RDKit          3D

 21 23  0  0  0  0  0  0  0  0999 V2000
   -6.5690   -1.7090  -17.9930 C   0  0  0  0  0  0  0  0  0  0  0  0
   -2.5770   -1.9870  -17.1460 C   0  0  0  0  0  0  0  0  0  0  0  0
   -7.7270   -3.4730  -14.9480 C   0  0  0  0  0  0  0  0  0  0  0  0
   -3.9920   -1.7870  -17.7770 C   0  0  0  0  0  0  0  0  0  0  0  0
    0.5660   -0.5610  -17.7500 C   0  0  0  0  0  0  0  0  0  0  0  0
   -2.8270   -0.5450  -19.6310 C   0  0  0  0  0  0  0  0  0  0  0  0
   -1.5620   -1.1990  -17.6950 C   0  0  0  0  0  0  0  0  0  0  0  0
   -2.6750   -3.9700  -16.7690 C   0  0  0  0  0  0  0  0  0  0  0  0
   -6.9950   -2.8770  -16.0220 C   0  0  0  0  0  0  0  0  0  0  0  0
   -2.2380   -2.7030  -14.8120 C   0  0  0  0  0  0  0  0  0  0  0  0
   -8.9610   -2.1350  -17.5750 C   0  0  0  0  0  0  0  0  0  0  0  0
   -5.5270   -2.7940  -16.1700 C   0  0  0  0  0  0  0  0  0  0  0  0
   -4.0230   -1.0820  -19.0350 C   0  0  0  0  0  0  0  0  0  0  0  0
    0.0090    0.5850  -18.7340 C   0  0  0  0  0  0  0  0  0  0  0  0
   -7.5210   -2.2540  -17.1850 N   0  0  0  0  0  0  0  0  0  0  0  0
   -2.5550   -2.7680  -15.9200 C   0  0  0  0  0  0  0  0  0  0  0  0
   -6.8620   -1.0060  -19.3260 C   0  0  0  0  0  0  0  0  0  0  0  0
   -0.2060   -1.9000  -17.6650 C   0  0  0  0  0  0  0  0  0  0  0  0
   -0.4730   -0.4710  -19.7370 C   0  0  0  0  0  0  0  0  0  0  0  0
   -1.7500   -0.6790  -18.8370 C   0  0  0  0  0  0  0  0  0  0  0  0
   -5.3450   -2.1350  -17.3120 C   0  0  0  0  0  0  0  0  0  0  0  0
  1 21  4  0
  1 15  4  0
  2 16  1  0
  4 21  1  0
  4  2  4  0
  5 18  1  0
  6 13  4  0
  6 20  4  0
  7 18  1  0
  7  2  4  0
  8 16  1  0
  9  3  1  0
 11 15  1  0
 12  9  4  0
 13  4  4  0
 14  5  1  0
 15  9  4  0
 16 10  2  0
 17  1  1  0
 19 20  1  0
 19 14  1  0
 20  7  4  0
 21 12  4  0
M  END
$$$$

     RDKit          3D

 21 23  0  0  0  0  0  0  0  0999 V2000
   -6.9390   -1.8430  -18.0010 C   0  0  0  0  0  0  0  0  0  0  0  0
   -3.0030   -2.0630  -17.5760 C   0  0  0  0  0  0  0  0  0  0  0  0
   -7.8030   -3.1310  -14.9030 O   0  0  0  0  0  0  0  0  0  0  0  0
   -4.3100   -1.6590  -18.0030 C   0  0  0  0  0  0  0  0  0  0  0  0
    0.2900   -0.4790  -17.6910 C   0  0  0  0  0  0  0  0  0  0  0  0
   -3.2370   -0.2800  -19.5820 C   0  0  0  0  0  0  0  0  0  0  0  0
   -1.8380   -1.3620  -18.0920 C   0  0  0  0  0  0  0  0  0  0  0  0
   -2.7340   -4.3160  -16.9570 O   0  0  0  0  0  0  0  0  0  0  0  0
   -7.2670   -2.7530  -15.9120 C   0  0  0  0  0  0  0  0  0  0  0  0
   -2.4600   -2.7650  -15.4150 O   0  0  0  0  0  0  0  0  0  0  0  0
   -9.3630   -2.3690  -17.2880 C   0  0  0  0  0  0  0  0  0  0  0  0
   -5.5710   -2.6850  -16.0280 S   0  0  0  0  0  0  0  0  0  0  0  0
   -4.3660   -0.8610  -19.0880 C   0  0  0  0  0  0  0  0  0  0  0  0
    0.4280   -0.0360  -19.0280 C   0  0  0  0  0  0  0  0  0  0  0  0
   -7.8900   -2.3400  -17.1150 N   0  0  0  0  0  0  0  0  0  0  0  0
   -2.7980   -3.1170  -16.5940 C   0  0  0  0  0  0  0  0  0  0  0  0
   -7.2610   -1.2980  -19.0910 O   0  0  0  0  0  0  0  0  0  0  0  0
   -0.5860   -1.5740  -17.4190 O   0  0  0  0  0  0  0  0  0  0  0  0
   -0.9230    0.3250  -19.6660 C   0  0  0  0  0  0  0  0  0  0  0  0
   -1.9730   -0.4600  -19.0840 C   0  0  0  0  0  0  0  0  0  0  0  0
   -5.5490   -2.0600  -17.4560 C   0  0  0  0  0  0  0  0  0  0  0  0
  1 21  1  0
  1 15  1  0
  2 16  1  0
  4  2  4  0
  5 18  1  0
  6 13  4  0
  6 20  4  0
  7  2  4  0
  7 18  1  0
  8 16  2  0
  9  3  2  0
 11 15  1  0
 12  9  1  0
 13  4  4  0
 14  5  1  0
 15  9  1  0
 16 10  1  0
 17  1  2  0
 19 20  1  0
 19 14  1  0
 20  7  4  0
 21  4  1  0
 21 12  1  0
M  END
$$$$

     RDKit          3D

 21 23  0  0  0  0  0  0  0  0999 V2000
   -6.8470   -1.6680  -18.0730 C   0  0  0  0  0  0  0  0  0  0  0  0
   -2.8760   -1.7850  -17.3810 C   0  0  0  0  0  0  0  0  0  0  0  0
   -7.6340   -3.3810  -14.8450 C   0  0  0  0  0  0  0  0  0  0  0  0
   -4.1530   -1.5080  -17.9670 C   0  0  0  0  0  0  0  0  0  0  0  0
    0.7580   -0.8570  -17.8070 C   0  0  0  0  0  0  0  0  0  0  0  0
   -2.9310   -0.2570  -19.6860 N   0  0  0  0  0  0  0  0  0  0  0  0
   -1.6280   -1.3420  -17.8590 C   0  0  0  0  0  0  0  0  0  0  0  0
   -2.8200   -3.9940  -16.7030 C   0  0  0  0  0  0  0  0  0  0  0  0
   -7.0000   -2.7390  -16.0960 N   0  0  0  0  0  0  0  0  0  0  0  0
   -2.8430   -2.4240  -14.9260 C   0  0  0  0  0  0  0  0  0  0  0  0
   -9.2000   -2.0710  -17.2390 C   0  0  0  0  0  0  0  0  0  0  0  0
   -5.6530   -2.5670  -16.2060 N   0  0  0  0  0  0  0  0  0  0  0  0
   -4.0580   -0.7690  -19.1490 C   0  0  0  0  0  0  0  0  0  0  0  0
    0.5230    0.1590  -18.6310 N   0  0  0  0  0  0  0  0  0  0  0  0
   -7.7520   -2.1840  -17.1070 N   0  0  0  0  0  0  0  0  0  0  0  0
   -2.7710   -2.6210  -16.3850 N   0  0  0  0  0  0  0  0  0  0  0  0
   -7.0850   -1.1470  -19.1030 O   0  0  0  0  0  0  0  0  0  0  0  0
   -0.3380   -1.5570  -17.2800 C   0  0  0  0  0  0  0  0  0  0  0  0
   -0.4700    0.1070  -19.5350 C   0  0  0  0  0  0  0  0  0  0  0  0
   -1.6940   -0.4510  -18.9830 C   0  0  0  0  0  0  0  0  0  0  0  0
   -5.4730   -1.9700  -17.3970 C   0  0  0  0  0  0  0  0  0  0  0  0
  1 21  4  0
  1 15  4  0
  2 16  1  0
  4 21  1  0
  4  2  4  0
  5 18  2  0
  6 13  4  0
  6 20  4  0
  7  2  4  0
  7 18  1  0
  8 16  1  0
  9  3  1  0
 11 15  1  0
 12  9  4  0
 13  4  4  0
 14  5  1  0
 15  9  4  0
 16 10  1  0
 17  1  2  0
 19 20  1  0
 19 14  1  0
 20  7  4  0
 21 12  4  0
M  END
$$$$

     RDKit          3D

 21 24  0  0  0  0  0  0  0  0999 V2000
   -6.3960   -1.7350  -18.0650 C   0  0  0  0  0  0  0  0  0  0  0  0
   -2.7410   -2.1160  -17.6050 C   0  0  0  0  0  0  0  0  0  0  0  0
   -7.8240   -3.3150  -15.1770 C   0  0  0  0  0  0  0  0  0  0  0  0
   -3.9520   -1.7980  -18.0540 N   0  0  0  0  0  0  0  0  0  0  0  0
    0.4360   -0.1600  -17.8030 C   0  0  0  0  0  0  0  0  0  0  0  0
   -2.8860   -0.7000  -19.7210 C   0  0  0  0  0  0  0  0  0  0  0  0
   -1.7630   -1.4480  -18.2790 C   0  0  0  0  0  0  0  0  0  0  0  0
   -2.7050   -4.2450  -16.6320 O   0  0  0  0  0  0  0  0  0  0  0  0
   -7.1520   -2.6450  -16.0790 C   0  0  0  0  0  0  0  0  0  0  0  0
   -1.8460   -2.3770  -15.0950 C   0  0  0  0  0  0  0  0  0  0  0  0
   -8.9330   -1.8640  -17.5820 C   0  0  0  0  0  0  0  0  0  0  0  0
   -5.4440   -2.7940  -15.9940 S   0  0  0  0  0  0  0  0  0  0  0  0
   -4.0970   -0.9930  -19.0330 C   0  0  0  0  0  0  0  0  0  0  0  0
    0.5340    0.1390  -19.2630 N   0  0  0  0  0  0  0  0  0  0  0  0
   -7.5320   -2.0260  -17.2260 N   0  0  0  0  0  0  0  0  0  0  0  0
   -2.3220   -2.9490  -16.5010 C   0  0  0  0  0  0  0  0  0  0  0  0
   -5.7640   -1.0390  -19.4970 S   0  0  0  0  0  0  0  0  0  0  0  0
   -0.2570   -1.5200  -17.7320 C   0  0  0  0  0  0  0  0  0  0  0  0
   -0.8570    0.3450  -19.7890 C   0  0  0  0  0  0  0  0  0  0  0  0
   -1.6440   -0.9970  -19.5110 C   0  0  0  0  0  0  0  0  0  0  0  0
   -5.2590   -2.1130  -17.4340 C   0  0  0  0  0  0  0  0  0  0  0  0
  1 21  2  0
  1 15  1  0
  2 16  1  0
  4  2  1  0
  4 21  1  0
  5 18  1  0
  6 20  1  0
  7 18  1  0
  7  2  1  0
  8 16  1  0
  9 12  1  0
  9  3  2  0
 11 15  1  0
 13  6  1  0
 13  4  1  0
 14  5  1  0
 15  9  1  0
 16 10  1  0
 17 13  1  0
 17  1  1  0
 19 14  1  0
 20 19  1  0
 20  7  1  0
 21 12  1  0
M  END
$$$$
