3pbq_imipenem_iter2_all_filtered_60
 OpenBabel12042511063D

 19 22  0  0  0  0  0  0  0  0999 V2000
   -1.2950   -1.1450  -17.3160 C   0  0  0  0  0  0  0  0  0  0  0  0
   -3.7100   -1.9100  -16.9520 C   0  0  0  0  0  0  0  0  0  0  0  0
   -2.6070   -1.2610  -17.7520 C   0  0  0  0  0  0  0  0  0  0  0  0
   -8.3080   -3.2100  -16.1480 C   0  0  0  0  0  0  0  0  0  0  0  0
   -4.9300   -1.8080  -17.7430 C   0  0  0  0  0  0  0  0  0  0  0  0
   -6.2200   -3.5170  -15.3000 C   0  0  0  0  0  0  0  0  0  0  0  0
   -6.8840   -0.9260  -19.7200 C   0  0  0  0  0  0  0  0  0  0  0  0
   -4.5600   -1.1090  -18.9720 C   0  0  0  0  0  0  0  0  0  0  0  0
   -9.4110   -3.0350  -16.9670 N   0  0  0  0  0  0  0  0  0  0  0  0
   -3.1520   -0.8940  -18.9880 O   0  0  0  0  0  0  0  0  0  0  0  0
   -7.1810   -4.0310  -14.4310 O   0  0  0  0  0  0  0  0  0  0  0  0
   -3.2820   -2.4730  -15.6410 C   0  0  0  0  0  0  0  0  0  0  0  0
   -5.5000   -0.6680  -19.9920 C   0  0  0  0  0  0  0  0  0  0  0  0
   -6.3820   -2.1200  -17.5520 C   0  0  0  0  0  0  0  0  0  0  0  0
   -0.9410   -1.4930  -15.9140 C   0  0  0  0  0  0  0  0  0  0  0  0
   -6.9210   -2.9180  -16.4440 C   0  0  0  0  0  0  0  0  0  0  0  0
   -8.4370   -3.8130  -14.9600 N   0  0  0  0  0  0  0  0  0  0  0  0
   -7.2860   -1.6030  -18.5690 C   0  0  0  0  0  0  0  0  0  0  0  0
   -1.9820   -2.2200  -15.1000 C   0  0  0  0  0  0  0  0  0  0  0  0
  1 15  2  0  0  0  0
  2 12  1  0  0  0  0
  3  1  1  0  0  0  0
  3  2  2  0  0  0  0
  4 17  2  0  0  0  0
  5 14  1  0  0  0  0
  5  2  1  0  0  0  0
  6 11  1  0  0  0  0
  7 18  1  0  0  0  0
  8  5  2  0  0  0  0
  9  4  1  0  0  0  0
 10  8  1  0  0  0  0
 10  3  1  0  0  0  0
 12 19  2  0  0  0  0
 13  7  2  0  0  0  0
 13  8  1  0  0  0  0
 14 16  1  0  0  0  0
 15 19  1  0  0  0  0
 16  4  1  0  0  0  0
 16  6  2  0  0  0  0
 17 11  1  0  0  0  0
 18 14  2  0  0  0  0
M  END
>  <rank>
1

>  <composite_score>
0.6609

>  <smiles>
Nc1nocc1-c1cccc2oc3ccccc3c12

$$$$
