3pbq_imipenem_iter2_all_filtered_82
 OpenBabel12042511063D

 22 25  0  0  0  0  0  0  0  0999 V2000
   -2.6710   -1.0120  -19.6780 C   0  0  0  0  0  0  0  0  0  0  0  0
   -2.2820   -2.2630  -15.4530 C   0  0  0  0  0  0  0  0  0  0  0  0
   -3.8360   -1.1680  -18.7670 C   0  0  2  0  0  0  0  0  0  0  0  0
   -1.3930   -1.3210  -19.1520 C   0  0  0  0  0  0  0  0  0  0  0  0
   -0.2700   -1.5260  -20.0580 C   0  0  0  0  0  0  0  0  0  0  0  0
   -2.3570   -1.7960  -16.8980 C   0  0  0  0  0  0  0  0  0  0  0  0
   -3.6760   -1.6100  -17.4320 C   0  0  0  0  0  0  0  0  0  0  0  0
   -9.4330   -2.9900  -16.9530 C   0  0  0  0  0  0  0  0  0  0  0  0
   -7.0790   -3.5890  -15.5710 C   0  0  0  0  0  0  0  0  0  0  0  0
  -10.5800   -2.7220  -17.5830 O   0  0  0  0  0  0  0  0  0  0  0  0
   -6.0180   -1.9820  -17.2270 C   0  0  0  0  0  0  0  0  0  0  0  0
   -9.4020   -3.9560  -15.9040 C   0  0  0  0  0  0  0  0  0  0  0  0
   -8.2790   -4.2460  -15.2450 C   0  0  0  0  0  0  0  0  0  0  0  0
   -0.0380   -2.0790  -17.2090 O   0  0  0  0  0  0  0  0  0  0  0  0
    0.9960   -1.1290  -17.1430 C   0  0  0  0  0  0  0  0  0  0  0  0
   -7.9270   -1.5430  -18.4160 C   0  0  0  0  0  0  0  0  0  0  0  0
   -6.4750   -1.4390  -18.4180 C   0  0  0  0  0  0  0  0  0  0  0  0
   -1.3120   -1.6620  -17.6820 C   0  0  0  0  0  0  0  0  0  0  0  0
   -4.8000   -1.9280  -16.7080 N   0  0  0  0  0  0  0  0  0  0  0  0
   -5.3520   -0.8130  -19.5050 S   0  0  0  0  0  0  0  0  0  0  0  0
   -8.2420   -2.4160  -17.3470 C   0  0  0  0  0  0  0  0  0  0  0  0
   -7.0610   -2.6680  -16.6620 C   0  0  0  0  0  0  0  0  0  0  0  0
  1  4  2  0  0  0  0
  3  1  1  6  0  0  0
  3  7  1  0  0  0  0
  4 18  1  0  0  0  0
  5  4  1  0  0  0  0
  6  2  1  0  0  0  0
  7  6  1  0  0  0  0
  7 19  2  0  0  0  0
  8 12  1  0  0  0  0
  9 13  1  0  0  0  0
 10  8  1  0  0  0  0
 11 19  1  0  0  0  0
 11 22  1  0  0  0  0
 12 13  2  0  0  0  0
 14 15  1  0  0  0  0
 16 21  1  0  0  0  0
 17 16  1  0  0  0  0
 17 11  2  0  0  0  0
 18 14  1  0  0  0  0
 18  6  2  0  0  0  0
 20  3  1  0  0  0  0
 20 17  1  0  0  0  0
 21  8  2  0  0  0  0
 21 22  1  0  0  0  0
 22  9  2  0  0  0  0
M  END
>  <rank>
3

>  <composite_score>
0.6554

>  <smiles>
COC1=C(C)C2=NC3=C(Cc4c(O)cccc43)SC2C=C1C

$$$$
