3pbq_imipenem_iter2_all_filtered_24
 OpenBabel12042511063D

 21 23  0  0  0  0  0  0  0  0999 V2000
   -6.7740   -1.8040  -17.9890 C   0  0  1  0  0  0  0  0  0  0  0  0
   -2.9300   -1.9140  -17.5760 C   0  0  0  0  0  0  0  0  0  0  0  0
   -7.4360   -3.2690  -15.0610 O   0  0  0  0  0  0  0  0  0  0  0  0
   -4.0960   -1.5200  -18.1570 C   0  0  0  0  0  0  0  0  0  0  0  0
    0.6500   -0.9920  -17.8850 C   0  0  0  0  0  0  0  0  0  0  0  0
   -2.9260   -0.2040  -19.8800 C   0  0  0  0  0  0  0  0  0  0  0  0
   -1.7390   -1.1760  -17.9610 C   0  0  0  0  0  0  0  0  0  0  0  0
   -2.5350   -4.3650  -17.2120 C   0  0  0  0  0  0  0  0  0  0  0  0
   -6.9990   -2.8070  -16.0520 C   0  0  0  0  0  0  0  0  0  0  0  0
   -2.6790   -2.8540  -15.1350 C   0  0  0  0  0  0  0  0  0  0  0  0
   -9.1390   -2.2050  -17.3040 C   0  0  0  0  0  0  0  0  0  0  0  0
   -5.4940   -2.5560  -16.3980 N   0  0  0  0  0  0  0  0  0  0  0  0
   -4.1840   -0.7580  -19.3550 C   0  0  0  0  0  0  0  0  0  0  0  0
    0.6120    0.0460  -18.8830 C   0  0  0  0  0  0  0  0  0  0  0  0
   -7.7050   -2.2850  -17.1130 N   0  0  0  0  0  0  0  0  0  0  0  0
   -2.8050   -2.9300  -16.6280 C   0  0  0  0  0  0  0  0  0  0  0  0
   -7.2640   -1.2780  -19.0890 F   0  0  0  0  0  0  0  0  0  0  0  0
   -0.5160   -1.4200  -17.2840 C   0  0  0  0  0  0  0  0  0  0  0  0
   -0.6050    0.3460  -19.4480 C   0  0  0  0  0  0  0  0  0  0  0  0
   -1.7770   -0.3320  -19.1290 C   0  0  0  0  0  0  0  0  0  0  0  0
   -5.4080   -1.9410  -17.5240 C   0  0  0  0  0  0  0  0  0  0  0  0
  1 17  1  1  0  0  0
  1 21  1  0  0  0  0
  1 15  1  0  0  0  0
  2 16  1  0  0  0  0
  4  2  2  0  0  0  0
  4 21  1  0  0  0  0
  5 18  1  0  0  0  0
  6 13  2  0  0  0  0
  6 20  1  0  0  0  0
  7  2  1  0  0  0  0
  7 18  2  0  0  0  0
  9  3  2  0  0  0  0
 11 15  1  0  0  0  0
 12  9  1  0  0  0  0
 13  4  1  0  0  0  0
 14  5  2  0  0  0  0
 15  9  1  0  0  0  0
 16  8  1  0  0  0  0
 16 10  1  0  0  0  0
 19 20  2  0  0  0  0
 19 14  1  0  0  0  0
 20  7  1  0  0  0  0
 21 12  2  0  0  0  0
M  END
>  <rank>
5

>  <composite_score>
0.6440

>  <smiles>
CC(C)c1c(C2=NC(=O)N(C)C2F)ccc2ccccc12

$$$$
