3pbq_imipenem_iter2_all_filtered_99
 OpenBabel12042511063D

 19 21  0  0  0  0  0  0  0  0999 V2000
   -4.4400   -2.3290  -16.2590 C   0  0  0  0  0  0  0  0  0  0  0  0
   -5.6440   -1.5160  -18.2270 C   0  0  0  0  0  0  0  0  0  0  0  0
   -0.2180    0.8770  -19.8940 C   0  0  0  0  0  0  0  0  0  0  0  0
   -9.1840   -3.1440  -16.6110 O   0  0  0  0  0  0  0  0  0  0  0  0
   -3.3010   -1.1520  -18.0890 C   0  0  0  0  0  0  0  0  0  0  0  0
   -4.4310   -1.0910  -18.8020 C   0  0  0  0  0  0  0  0  0  0  0  0
   -0.0550    0.7890  -18.3730 C   0  0  0  0  0  0  0  0  0  0  0  0
   -8.0230   -2.6250  -17.0630 C   0  0  0  0  0  0  0  0  0  0  0  0
   -0.9400   -0.2410  -17.7100 C   0  0  0  0  0  0  0  0  0  0  0  0
   -6.9040   -1.3580  -18.8630 C   0  0  0  0  0  0  0  0  0  0  0  0
   -1.7910   -1.0780  -19.9430 C   0  0  0  0  0  0  0  0  0  0  0  0
   -3.3020   -1.8370  -16.8080 C   0  0  0  0  0  0  0  0  0  0  0  0
   -8.0610   -1.8600  -18.2740 C   0  0  0  0  0  0  0  0  0  0  0  0
   -1.8340   -2.1360  -16.0590 Cl  0  0  0  0  0  0  0  0  0  0  0  0
   -6.8030   -2.6980  -16.4410 C   0  0  0  0  0  0  0  0  0  0  0  0
   -5.6400   -2.1790  -16.9480 C   0  0  0  0  0  0  0  0  0  0  0  0
   -0.5470   -0.4610  -20.5260 C   0  0  0  0  0  0  0  0  0  0  0  0
   -2.0340   -0.7100  -18.5900 N   0  0  0  0  0  0  0  0  0  0  0  0
   -6.7600   -3.4000  -14.9140 Cl  0  0  0  0  0  0  0  0  0  0  0  0
  2 16  2  0  0  0  0
  3  7  1  0  0  0  0
  5 12  1  0  0  0  0
  6  2  1  0  0  0  0
  6  5  2  0  0  0  0
  7  9  1  0  0  0  0
  8  4  1  0  0  0  0
  8 15  2  0  0  0  0
 10 13  2  0  0  0  0
 10  2  1  0  0  0  0
 11 18  1  0  0  0  0
 12  1  2  0  0  0  0
 12 14  1  0  0  0  0
 13  8  1  0  0  0  0
 15 19  1  0  0  0  0
 16 15  1  0  0  0  0
 16  1  1  0  0  0  0
 17 11  1  0  0  0  0
 17  3  1  0  0  0  0
 18  5  1  0  0  0  0
 18  9  1  0  0  0  0
M  END
>  <rank>
2

>  <composite_score>
0.6593

>  <smiles>
Oc1ccc2cc(N3CCCCC3)c(Cl)cc2c1Cl

$$$$
