3pbq_imipenem_iter2_all_filtered_77
 OpenBabel12042511063D

 22 25  0  0  0  0  0  0  0  0999 V2000
   -2.4200   -1.1320  -19.6000 C   0  0  0  0  0  0  0  0  0  0  0  0
   -2.5240   -2.8730  -15.5960 Cl  0  0  0  0  0  0  0  0  0  0  0  0
   -3.6060   -1.1560  -18.8880 C   0  0  0  0  0  0  0  0  0  0  0  0
   -1.3310   -1.6240  -18.9090 C   0  0  0  0  0  0  0  0  0  0  0  0
    0.0280   -1.7460  -19.3870 C   0  0  0  0  0  0  0  0  0  0  0  0
   -2.5660   -2.1960  -16.9890 C   0  0  0  0  0  0  0  0  0  0  0  0
   -3.6720   -1.6570  -17.5490 C   0  0  0  0  0  0  0  0  0  0  0  0
   -9.4940   -3.0800  -16.7160 C   0  0  0  0  0  0  0  0  0  0  0  0
   -7.0750   -3.3990  -15.3560 C   0  0  0  0  0  0  0  0  0  0  0  0
  -10.7940   -2.7670  -17.3080 N   0  0  0  0  0  0  0  0  0  0  0  0
   -6.1580   -1.9020  -17.2440 C   0  0  0  0  0  0  0  0  0  0  0  0
   -9.3810   -3.9630  -15.6700 C   0  0  0  0  0  0  0  0  0  0  0  0
   -8.1750   -4.1870  -15.0430 C   0  0  0  0  0  0  0  0  0  0  0  0
   -0.2260   -2.8190  -17.4600 O   0  0  0  0  0  0  0  0  0  0  0  0
    0.7220   -1.9860  -18.0670 C   0  0  0  0  0  0  0  0  0  0  0  0
   -8.1670   -1.6480  -18.2310 N   0  0  0  0  0  0  0  0  0  0  0  0
   -6.8490   -1.2920  -18.2550 C   0  0  0  0  0  0  0  0  0  0  0  0
   -1.4470   -2.1100  -17.6370 C   0  0  0  0  0  0  0  0  0  0  0  0
   -4.8800   -1.5470  -16.8020 C   0  0  0  0  0  0  0  0  0  0  0  0
   -4.9440   -0.6380  -20.0250 Cl  0  0  0  0  0  0  0  0  0  0  0  0
   -8.3340   -2.4980  -17.1910 C   0  0  0  0  0  0  0  0  0  0  0  0
   -7.1290   -2.6100  -16.5350 C   0  0  0  0  0  0  0  0  0  0  0  0
  1  4  2  0  0  0  0
  1  3  1  0  0  0  0
  3  7  2  0  0  0  0
  4 18  1  0  0  0  0
  5  4  1  0  0  0  0
  5 15  1  0  0  0  0
  6  2  1  0  0  0  0
  7  6  1  0  0  0  0
  7 19  1  0  0  0  0
  8 12  1  0  0  0  0
  9 13  2  0  0  0  0
 10  8  1  0  0  0  0
 11 19  1  0  0  0  0
 11 22  2  0  0  0  0
 12 13  1  0  0  0  0
 15 14  1  0  0  0  0
 16 21  1  0  0  0  0
 17 16  2  0  0  0  0
 17 11  1  0  0  0  0
 18 14  1  0  0  0  0
 18  6  2  0  0  0  0
 20  3  1  0  0  0  0
 21  8  2  0  0  0  0
 21 22  1  0  0  0  0
 22  9  1  0  0  0  0
M  END
>  <rank>
4

>  <composite_score>
0.6517

>  <smiles>
NC1=C2N=CC(Cc3c(Cl)cc4c(c3Cl)OCC4)=C2C=CC1

$$$$
